data_I
_chemical_name_common  '/home/zhangsd/repos/MofS-CGCNN/ML/data/WS24/clean_cifs/HOWROC'
_cell_length_a 19.47780
_cell_length_b 13.95420
_cell_length_c 23.76100
_cell_angle_alpha 90.00000
_cell_angle_beta  104.44400
_cell_angle_gamma 90.00000
_space_group_name_H-M_alt      'P 1'


loop_
_space_group_symop_operation_xyz
  'x, y, z' 

loop_
_atom_site_label
_atom_site_fract_x
_atom_site_fract_y
_atom_site_fract_z
_atom_site_type_symbol
C       0.0057   0.2207   0.6912     C
C       0.0057   0.2793   0.1912     C
H       0.0095    0.212   0.6076     H
H       0.0095    0.288   0.1076     H
C       0.0148   0.5247   0.2247     C
C       0.0148   0.9753   0.7247     C
C       0.0158   0.2281   0.7976     C
C       0.0158   0.2719   0.2976     C
O       0.0176   0.5054   0.2763     O
O       0.0176   0.9946   0.7763     O
Ba      0.0221  0.55681   0.6266    Ba
Ba      0.0221  0.94319   0.1266    Ba
C       0.0297   0.2418   0.6428     C
C       0.0297   0.2582   0.1428     C
H       0.0305   0.6762   0.8114     H
H       0.0305   0.8238   0.3114     H
C       0.0353   0.2346    0.244     C
C       0.0353   0.2654    0.744     C
H        0.037   0.5367   0.8803     H
H        0.037   0.9633   0.3803     H
O       0.0483   0.7239  0.70242     O
O       0.0483   0.7761  0.20242     O
C       0.0567   0.0457   0.3172     C
C       0.0567   0.4543   0.8172     C
O        0.065   0.1966  0.83789     O
O        0.065   0.3034  0.33789     O
O       0.0653   0.5915  0.43719     O
O       0.0653   0.9085  0.93719     O
O       0.0687    0.523  0.20409     O
O       0.0687    0.977  0.70409     O
C       0.0718   0.5002   0.8699     C
C       0.0718   0.9998   0.3699     C
C       0.0837   0.1928   0.1468     C
C       0.0837   0.3072   0.6468     C
C       0.0865    0.162   0.2474     C
C       0.0865    0.338   0.7474     C
H       0.1016   0.1812   0.1146     H
H       0.1016   0.3188   0.6146     H
H       0.1066   0.6563   0.3108     H
H       0.1066   0.8437   0.8108     H
C        0.108   0.1057   0.3019     C
C        0.108   0.3943   0.8019     C
O       0.1119   0.0266  0.06588     O
O       0.1119   0.4734  0.56588     O
C       0.1121   0.1435   0.1991     C
C       0.1121   0.3565   0.6991     C
O       0.1176   0.6967  0.59732     O
O       0.1176   0.8033  0.09732     O
H       0.1193   0.7235   0.5655     H
H       0.1193   0.7765   0.0655     H
C       0.1225     0.56   0.4296     C
C       0.1225     0.94   0.9296     C
O       0.1256   0.0138  0.90073     O
O       0.1256   0.4862  0.40073     O
C       0.1389   0.0072   0.4081     C
C       0.1389   0.4928   0.9081     C
H       0.1448   0.7423   0.4251     H
H       0.1448   0.7577   0.9251     H
H       0.1462   0.6496   0.6038     H
H       0.1462   0.8504   0.1038     H
O       0.1466   0.6396   0.3057     O
O       0.1466   0.8604   0.8057     O
H       0.1485   0.5236   0.9439     H
H       0.1485   0.9764   0.4439     H
O       0.1514    0.518   0.7034     O
O       0.1514    0.982   0.2034     O
Ba     0.15623  0.67145  0.18658    Ba
Ba     0.15623  0.82855  0.68658    Ba
Ba      0.1641  0.07188  0.80592    Ba
Ba      0.1641  0.42812  0.30592    Ba
C       0.1687   0.0673   0.2012     C
C       0.1687   0.4327   0.7012     C
H       0.1739   0.1953   0.0545     H
H       0.1739   0.3047   0.5545     H
H       0.1747   0.6629   0.3267     H
H       0.1747   0.8371   0.8267     H
C        0.175   0.0089   0.0648     C
C        0.175   0.4911   0.5648     C
C       0.1765    0.112   0.3402     C
C       0.1765    0.388   0.8402     C
C       0.1877   0.7135   0.4432     C
C       0.1877   0.7865   0.9432     C
C       0.1898   0.6172   0.4537     C
C       0.1898   0.8828   0.9537     C
C       0.1909   0.0609   0.3922     C
C       0.1909   0.4391   0.8922     C
C       0.2028   0.1696   0.0324     C
C       0.2028   0.3304   0.5324     C
O       0.2101   0.5614  0.59203     O
O       0.2101   0.9386  0.09203     O
C       0.2109   0.0717   0.0304     C
C       0.2109   0.4283   0.5304     C
O       0.2191   0.2477  0.80297     O
O       0.2191   0.2523  0.30297     O
O       0.2297   0.0963   0.1997     O
O       0.2297   0.4037   0.6997     O
H       0.2316   0.2037   0.5045     H
H       0.2316   0.2963   0.0045     H
C       0.2343   0.1736   0.3273     C
C       0.2343   0.3264   0.8273     C
H       0.2363   0.0627   0.4167     H
H       0.2363   0.4373   0.9167     H
C       0.2369   0.2303   0.0022     C
C       0.2369   0.2697   0.5022     C
O       0.2398   0.6304   0.1111     O
O       0.2398   0.8696   0.6111     O
H       0.2463   0.6667   0.9493     H
H       0.2463   0.8333   0.4493     H
C       0.2478   0.7313    0.959     C
C       0.2478   0.7687    0.459     C
O       0.2489    0.533  0.24016     O
O       0.2489    0.967  0.74016     O
C        0.252   0.0317   0.9958     C
C        0.252   0.4683   0.4958     C
C       0.2529   0.5741   0.4855     C
C       0.2529   0.9259   0.9855     C
C       0.2782   0.1931   0.9691     C
C       0.2782   0.3069   0.4691     C
C       0.2857   0.0949   0.9653     C
C       0.2857   0.4051   0.4653     C
O       0.2864    0.749   0.1693     O
O       0.2864    0.751   0.6693     O
C       0.2918   0.6747   0.1413     C
C       0.2918   0.8253   0.6413     C
O       0.2961   0.1403   0.3427     O
O       0.2961   0.3597   0.8427     O
O       0.2985   0.0496   0.8718     O
O       0.2985   0.4504   0.3718     O
H       0.3015   0.2338    0.949     H
H       0.3015   0.2662    0.449     H
C       0.3106    0.727   0.4896     C
C       0.3106    0.773   0.9896     C
H        0.312   0.6288   0.3504     H
H        0.312   0.8712   0.8504     H
C       0.3128   0.6318   0.5045     C
C       0.3128   0.8682   0.0045     C
C       0.3167   0.5268   0.2579     C
C       0.3167   0.9732   0.7579     C
Ba     0.31763  0.24821  0.72967    Ba
Ba     0.31763  0.25179  0.22967    Ba
Ba     0.31989  0.56115  0.68487    Ba
Ba     0.31989  0.93885  0.18487    Ba
C       0.3293   0.0587   0.9255     C
C       0.3293   0.4413   0.4255     C
H       0.3439    0.598   0.0604     H
H       0.3439    0.902   0.5604     H
C       0.3446   0.6568   0.3328     C
C       0.3446   0.8432   0.8328     C
O       0.3507   0.0481  0.75847     O
O       0.3507   0.4519  0.25847     O
H       0.3517   0.7362      0.0     H
H       0.3517   0.7638      0.5     H
C       0.3553   0.6176    0.281     C
C       0.3553   0.8824    0.781     C
C       0.3636   0.6319   0.1449     C
C       0.3636   0.8681   0.6449     C
O       0.3759   0.5437  0.58762     O
O       0.3759   0.9563  0.08762     O
H       0.3763   0.7413   0.8925     H
H       0.3763   0.7587   0.3925     H
C       0.3788   0.5963   0.0951     C
C       0.3788   0.9037   0.5951     C
C       0.3805      0.6   0.5472     C
C       0.3805      0.9   0.0472     C
C       0.3819   0.7357   0.3572     C
C       0.3819   0.7643   0.8572     C
H       0.3873   0.2494   0.8784     H
H       0.3873   0.2506   0.3784     H
O       0.3931   0.0436  0.94582     O
O       0.3931   0.4564  0.44582     O
O       0.3963   0.0851  0.25431     O
O       0.3963   0.4149  0.75431     O
C       0.4016   0.6639   0.2535     C
C       0.4016   0.8361   0.7535     C
O       0.4115   0.2406   0.8536     O
O       0.4115   0.2594   0.3536     O
C       0.4154   0.6262   0.1986     C
C       0.4154   0.8738   0.6986     C
C       0.4272   0.7189   0.8306     C
C       0.4272   0.7811   0.3306     C
C        0.436   0.7474   0.2774     C
C        0.436   0.7526   0.7774     C
O       0.4379   0.6343  0.54146     O
O       0.4379   0.8657  0.04146     O
H       0.4442   0.2176   0.3587     H
H       0.4442   0.2824   0.8587     H
C       0.4446   0.5581   0.0955     C
C       0.4446   0.9419   0.5955     C
O       0.4515   0.6462   0.7048     O
O       0.4515   0.8538   0.2048     O
H       0.4523   0.6654   0.8479     H
H       0.4523   0.8346   0.3479     H
O        0.453   0.2055   0.7364     O
O        0.453   0.2945   0.2364     O
H       0.4539    0.535   0.0614     H
H       0.4539    0.965   0.5614     H
C       0.4584   0.0796    0.247     C
C       0.4584   0.4204    0.747     C
H       0.4594   0.0306   0.3523     H
H       0.4594   0.4694   0.8523     H
Ba     0.46847  0.05204  0.86189    Ba
Ba     0.46847  0.44796  0.36189    Ba
O       0.4718   0.0667  0.19887     O
O       0.4718   0.4333  0.69887     O
C       0.4819   0.5875   0.1986     C
C       0.4819   0.6978   0.7463     C
C       0.4819   0.8022   0.2463     C
C       0.4819   0.9125   0.6986     C
C       0.4959   0.5549   0.1471     C
C       0.4959   0.9451   0.6471     C
C       0.5041   0.0549   0.3529     C
C       0.5041   0.4451   0.8529     C
C       0.5181   0.0875   0.3014     C
C       0.5181   0.1978   0.7537     C
C       0.5181   0.3022   0.2537     C
C       0.5181   0.4125   0.8014     C
O       0.5282   0.5667  0.30113     O
O       0.5282   0.9333  0.80113     O
Ba     0.53153  0.55204  0.63811    Ba
Ba     0.53153  0.94796  0.13811    Ba
H       0.5406   0.5306   0.1477     H
H       0.5406   0.9694   0.6477     H
C       0.5416   0.5796    0.253     C
C       0.5416   0.9204    0.753     C
H       0.5461    0.035   0.4386     H
H       0.5461    0.465   0.9386     H
O        0.547   0.7055   0.7636     O
O        0.547   0.7945   0.2636     O
H       0.5477   0.1654   0.6521     H
H       0.5477   0.3346   0.1521     H
O       0.5485   0.1462   0.7952     O
O       0.5485   0.3538   0.2952     O
C       0.5554   0.0581   0.4045     C
C       0.5554   0.4419   0.9045     C
H       0.5558   0.7176   0.1413     H
H       0.5558   0.7824   0.6413     H
O       0.5621   0.1343  0.95854     O
O       0.5621   0.3657  0.45854     O
C        0.564   0.2474   0.2226     C
C        0.564   0.2526   0.7226     C
C       0.5728   0.2189   0.6694     C
C       0.5728   0.2811   0.1694     C
C       0.5846   0.1262   0.3014     C
C       0.5846   0.3738   0.8014     C
O       0.5885   0.7406   0.6464     O
O       0.5885   0.7594   0.1464     O
C       0.5984   0.1639   0.2465     C
C       0.5984   0.3361   0.7465     C
O       0.6037   0.5851  0.24569     O
O       0.6037   0.9149  0.74569     O
O       0.6069   0.5436  0.55418     O
O       0.6069   0.9564  0.05418     O
H       0.6127   0.7494   0.6216     H
H       0.6127   0.7506   0.1216     H
C       0.6181   0.2357   0.1428     C
C       0.6181   0.2643   0.6428     C
C       0.6195      0.1   0.9528     C
C       0.6195      0.4   0.4528     C
C       0.6212   0.0963   0.4049     C
C       0.6212   0.4037   0.9049     C
H       0.6237   0.2413   0.6075     H
H       0.6237   0.2587   0.1075     H
O       0.6241   0.0437  0.91238     O
O       0.6241   0.4563  0.41238     O
C       0.6364   0.1319   0.3551     C
C       0.6364   0.3681   0.8551     C
C       0.6447   0.1176    0.219     C
C       0.6447   0.3824    0.719     C
H       0.6483   0.2362      0.5     H
H       0.6483   0.2638      0.0     H
O       0.6493   0.5481  0.74153     O
O       0.6493   0.9519  0.24153     O
C       0.6554   0.1568   0.1672     C
C       0.6554   0.3432   0.6672     C
H       0.6561    0.098   0.4396     H
H       0.6561    0.402   0.9396     H
C       0.6707   0.5587   0.5745     C
C       0.6707   0.9413   0.0745     C
Ba     0.68011  0.06115  0.81513    Ba
Ba     0.68011  0.43885  0.31513    Ba
Ba     0.68237  0.74821  0.77033    Ba
Ba     0.68237  0.75179  0.27033    Ba
C       0.6833   0.0268   0.2421     C
C       0.6833   0.4732   0.7421     C
C       0.6872   0.1318   0.9955     C
C       0.6872   0.3682   0.4955     C
H        0.688   0.1288   0.1496     H
H        0.688   0.3712   0.6496     H
C       0.6894    0.227   0.0104     C
C       0.6894    0.273   0.5104     C
H       0.6985   0.7338    0.551     H
H       0.6985   0.7662    0.051     H
O       0.7015   0.5496   0.6282     O
O       0.7015   0.9504   0.1282     O
O       0.7039   0.6403   0.1573     O
O       0.7039   0.8597   0.6573     O
C       0.7082   0.1747   0.3587     C
C       0.7082   0.3253   0.8587     C
O       0.7136    0.249   0.3307     O
O       0.7136    0.251   0.8307     O
C       0.7143   0.5949   0.5347     C
C       0.7143   0.9051   0.0347     C
C       0.7218   0.6931   0.5309     C
C       0.7218   0.8069   0.0309     C
C       0.7471   0.0741   0.0145     C
C       0.7471   0.4259   0.5145     C
C        0.748   0.5317   0.5042     C
C        0.748   0.9683   0.0042     C
O       0.7511    0.033  0.25984     O
O       0.7511    0.467  0.75984     O
C       0.7522   0.2313    0.541     C
C       0.7522   0.2687    0.041     C
H       0.7537   0.1667   0.5507     H
H       0.7537   0.3333   0.0507     H
O       0.7602   0.1304   0.3889     O
O       0.7602   0.3696   0.8889     O
C       0.7631   0.7303   0.4978     C
C       0.7631   0.7697   0.9978     C
H       0.7637   0.5627   0.0833     H
H       0.7637   0.9373   0.5833     H
C       0.7657   0.6736   0.1727     C
C       0.7657   0.8264   0.6727     C
H       0.7684   0.7037   0.9955     H
H       0.7684   0.7963   0.4955     H
O       0.7703   0.5963   0.3003     O
O       0.7703   0.9037   0.8003     O
O       0.7809   0.7477  0.69703     O
O       0.7809   0.7523  0.19703     O
C       0.7891   0.5717   0.4696     C
C       0.7891   0.9283   0.9696     C
O       0.7899   0.0614  0.90797     O
O       0.7899   0.4386  0.40797     O
C       0.7972   0.6696   0.4676     C
C       0.7972   0.8304   0.9676     C
C       0.8091   0.5609   0.1078     C
C       0.8091   0.9391   0.6078     C
C       0.8102   0.1172   0.0463     C
C       0.8102   0.3828   0.5463     C
C       0.8123   0.2135   0.0568     C
C       0.8123   0.2865   0.5568     C
C       0.8235    0.612   0.1598     C
C       0.8235    0.888   0.6598     C
C        0.825   0.5089   0.4352     C
C        0.825   0.9911   0.9352     C
H       0.8253   0.1629   0.1733     H
H       0.8253   0.3371   0.6733     H
H       0.8261   0.6953   0.4455     H
H       0.8261   0.8047   0.9455     H
C       0.8313   0.5673   0.2988     C
C       0.8313   0.9327   0.7988     C
Ba      0.8359  0.57188  0.69408    Ba
Ba      0.8359  0.92812  0.19408    Ba
Ba     0.84377  0.17145  0.31342    Ba
Ba     0.84377  0.32855  0.81342    Ba
O       0.8486    0.018   0.7966     O
O       0.8486    0.482   0.2966     O
H       0.8515   0.0236   0.5561     H
H       0.8515   0.4764   0.0561     H
O       0.8534   0.1396   0.1943     O
O       0.8534   0.3604   0.6943     O
H       0.8538   0.1496   0.8962     H
H       0.8538   0.3504   0.3962     H
H       0.8552   0.2423   0.0749     H
H       0.8552   0.2577   0.5749     H
C       0.8611   0.5072   0.0919     C
C       0.8611   0.9928   0.5919     C
O       0.8744   0.5138  0.59927     O
O       0.8744   0.9862  0.09927     O
C       0.8775     0.06   0.0704     C
C       0.8775     0.44   0.5704     C
H       0.8807   0.2235   0.9345     H
H       0.8807   0.2765   0.4345     H
O       0.8824   0.1967  0.90268     O
O       0.8824   0.3033  0.40268     O
C       0.8879   0.6435   0.3009     C
C       0.8879   0.8565   0.8009     C
O       0.8881   0.5266  0.43412     O
O       0.8881   0.9734  0.93412     O
C        0.892   0.6057   0.1981     C
C        0.892   0.8943   0.6981     C
H       0.8934   0.1563   0.1892     H
H       0.8934   0.3437   0.6892     H
H       0.8984   0.6812   0.3854     H
H       0.8984   0.8188   0.8854     H
C       0.9135    0.662   0.2526     C
C       0.9135    0.838   0.7526     C
C       0.9163   0.6928   0.3532     C
C       0.9163   0.8072   0.8532     C
C       0.9282   0.0002   0.6301     C
C       0.9282   0.4998   0.1301     C
O       0.9313    0.023  0.29591     O
O       0.9313    0.477  0.79591     O
O       0.9347   0.0915  0.06281     O
O       0.9347   0.4085  0.56281     O
O        0.935   0.6966  0.66211     O
O        0.935   0.8034  0.16211     O
C       0.9433   0.5457   0.1828     C
C       0.9433   0.9543   0.6828     C
O       0.9517   0.2239  0.79758     O
O       0.9517   0.2761  0.29758     O
H        0.963   0.0367   0.6197     H
H        0.963   0.4633   0.1197     H
C       0.9647   0.7346    0.256     C
C       0.9647   0.7654    0.756     C
H       0.9695   0.1762   0.6886     H
H       0.9695   0.3238   0.1886     H
C       0.9703   0.7418   0.8572     C
C       0.9703   0.7582   0.3572     C
Ba      0.9779  0.05681   0.8734    Ba
Ba      0.9779  0.44319   0.3734    Ba
O       0.9824   0.0054   0.2237     O
O       0.9824   0.4946   0.7237     O
C       0.9842   0.7281   0.7024     C
C       0.9842   0.7719   0.2024     C
C       0.9852   0.0247   0.2753     C
C       0.9852   0.4753   0.7753     C
H       0.9905    0.712   0.8924     H
H       0.9905    0.788   0.3924     H
C       0.9943   0.7207   0.8088     C
C       0.9943   0.7793   0.3088     C
