data_I
_chemical_name_common  '/home/zhangsd/repos/MofS-CGCNN/ML/data/WS24/clean_cifs/HUCSEF'
_cell_length_a 18.94500
_cell_length_b 18.94500
_cell_length_c 27.56100
_cell_angle_alpha 90.00000
_cell_angle_beta  90.00000
_cell_angle_gamma 90.00000
_space_group_name_H-M_alt      'P 1'


loop_
_space_group_symop_operation_xyz
  'x, y, z' 

loop_
_atom_site_label
_atom_site_fract_x
_atom_site_fract_y
_atom_site_fract_z
_atom_site_type_symbol
C          0.0   0.2073   0.0268     C
C          0.0   0.2073   0.9732     C
H          0.0   0.2523   0.2401     H
H          0.0   0.2523   0.7599     H
C          0.0   0.2585   0.2066     C
C          0.0   0.2585   0.7934     C
C          0.0   0.2708   0.0499     C
C          0.0   0.2708   0.9501     C
C          0.0   0.2712   0.1063     C
C          0.0   0.2712   0.8937     C
C          0.0   0.3341   0.0273     C
C          0.0   0.3341   0.9727     C
C          0.0   0.6659   0.0273     C
C          0.0   0.6659   0.9727     C
C          0.0   0.7288   0.1063     C
C          0.0   0.7288   0.8937     C
C          0.0   0.7292   0.0499     C
C          0.0   0.7292   0.9501     C
C          0.0   0.7415   0.2066     C
C          0.0   0.7415   0.7934     C
H          0.0   0.7477   0.2401     H
H          0.0   0.7477   0.7599     H
C          0.0   0.7927   0.0268     C
C          0.0   0.7927   0.9732     C
C       0.0292   0.4066   0.0523     C
C       0.0292   0.4066   0.9477     C
C       0.0292   0.5934   0.0523     C
C       0.0292   0.5934   0.9477     C
C       0.0319   0.1378    0.053     C
C       0.0319   0.1378    0.947     C
C       0.0319   0.8622    0.053     C
C       0.0319   0.8622    0.947     C
H        0.046   0.3617   0.0412     H
H        0.046   0.3617   0.9588     H
H        0.046    0.415   0.0847     H
H        0.046    0.415   0.9153     H
H        0.046   0.4432   0.0312     H
H        0.046   0.4432   0.9688     H
H        0.046   0.5568   0.0312     H
H        0.046   0.5568   0.9688     H
H        0.046    0.585   0.0847     H
H        0.046    0.585   0.9153     H
H        0.046   0.6383   0.0412     H
H        0.046   0.6383   0.9588     H
H       0.0488   0.1003   0.0327     H
H       0.0488   0.1003   0.9673     H
H       0.0488    0.131   0.0855     H
H       0.0488    0.131   0.9145     H
H       0.0488   0.1822   0.0408     H
H       0.0488   0.1822   0.9592     H
H       0.0488   0.8178   0.0408     H
H       0.0488   0.8178   0.9592     H
H       0.0488    0.869   0.0855     H
H       0.0488    0.869   0.9145     H
H       0.0488   0.8997   0.0327     H
H       0.0488   0.8997   0.9673     H
H       0.0568    0.454   0.4688     H
H       0.0568    0.454   0.5312     H
H       0.0568    0.546   0.4688     H
H       0.0568    0.546   0.5312     H
C        0.064   0.2695  0.13098     C
C        0.064   0.2695  0.86902     C
C        0.064   0.7305  0.13098     C
C        0.064   0.7305  0.86902     C
C       0.0642   0.2631  0.18185     C
C       0.0642   0.2631  0.81815     C
C       0.0642   0.7369  0.18185     C
C       0.0642   0.7369  0.81815     C
H        0.085    0.454   0.4153     H
H        0.085    0.454   0.5847     H
H        0.085    0.546   0.4153     H
H        0.085    0.546   0.5847     H
C       0.0934   0.4708   0.4477     C
C       0.0934   0.4708   0.5523     C
C       0.0934   0.5292   0.4477     C
C       0.0934   0.5292   0.5523     C
H       0.1003   0.0488   0.0327     H
H       0.1003   0.0488   0.9673     H
H       0.1003   0.9512   0.0327     H
H       0.1003   0.9512   0.9673     H
H       0.1063   0.2725    0.114     H
H       0.1063   0.2725    0.886     H
H       0.1063   0.7275    0.114     H
H       0.1063   0.7275    0.886     H
H        0.131   0.0488   0.0855     H
H        0.131   0.0488   0.9145     H
H        0.131   0.9512   0.0855     H
H        0.131   0.9512   0.9145     H
O      0.13145  0.23554  0.24969     O
O      0.13145  0.23554  0.75031     O
O      0.13145  0.76446  0.24969     O
O      0.13145  0.76446  0.75031     O
C       0.1348   0.2631  0.20686     C
C       0.1348   0.2631  0.79314     C
C       0.1348   0.7369  0.20686     C
C       0.1348   0.7369  0.79314     C
C       0.1378   0.0319    0.053     C
C       0.1378   0.0319    0.947     C
C       0.1378   0.9681    0.053     C
C       0.1378   0.9681    0.947     C
H       0.1383    0.454   0.4588     H
H       0.1383    0.454   0.5412     H
H       0.1383    0.546   0.4588     H
H       0.1383    0.546   0.5412     H
C       0.1659      0.5   0.4727     C
C       0.1659      0.5   0.5273     C
H       0.1822   0.0488   0.0408     H
H       0.1822   0.0488   0.9592     H
H       0.1822   0.9512   0.0408     H
H       0.1822   0.9512   0.9592     H
O        0.187   0.2864  0.18714     O
O        0.187   0.2864  0.81286     O
O        0.187   0.7136  0.18714     O
O        0.187   0.7136  0.81286     O
C       0.2073      0.0   0.0268     C
C       0.2073      0.0   0.9732     C
O       0.2136    0.313  0.31286     O
O       0.2136    0.313  0.68714     O
O       0.2136    0.687  0.31286     O
O       0.2136    0.687  0.68714     O
Cu     0.21884  0.21884  0.28741    Cu
Cu     0.21884  0.21884  0.71259    Cu
Cu     0.21884  0.78116  0.28741    Cu
Cu     0.21884  0.78116  0.71259    Cu
H       0.2275   0.3937    0.386     H
H       0.2275   0.3937    0.614     H
H       0.2275   0.6063    0.386     H
H       0.2275   0.6063    0.614     H
C       0.2288      0.5   0.3937     C
C       0.2288      0.5   0.6063     C
C       0.2292      0.5   0.4501     C
C       0.2292      0.5   0.5499     C
C       0.2305    0.436  0.36902     C
C       0.2305    0.436  0.63098     C
C       0.2305    0.564  0.36902     C
C       0.2305    0.564  0.63098     C
O      0.23554  0.13145  0.24969     O
O      0.23554  0.13145  0.75031     O
O      0.23554  0.86855  0.24969     O
O      0.23554  0.86855  0.75031     O
C       0.2369   0.3652  0.29314     C
C       0.2369   0.3652  0.70686     C
C       0.2369   0.4358  0.31815     C
C       0.2369   0.4358  0.68185     C
C       0.2369   0.5642  0.31815     C
C       0.2369   0.5642  0.68185     C
C       0.2369   0.6348  0.29314     C
C       0.2369   0.6348  0.70686     C
C       0.2415      0.5   0.2934     C
C       0.2415      0.5   0.7066     C
H       0.2477      0.5   0.2599     H
H       0.2477      0.5   0.7401     H
H       0.2523      0.0   0.2401     H
H       0.2523      0.0   0.7599     H
C       0.2585      0.0   0.2066     C
C       0.2585      0.0   0.7934     C
C       0.2631   0.0642  0.18185     C
C       0.2631   0.0642  0.81815     C
C       0.2631   0.1348  0.20686     C
C       0.2631   0.1348  0.79314     C
C       0.2631   0.8652  0.20686     C
C       0.2631   0.8652  0.79314     C
C       0.2631   0.9358  0.18185     C
C       0.2631   0.9358  0.81815     C
O      0.26446  0.36855  0.25031     O
O      0.26446  0.36855  0.74969     O
O      0.26446  0.63145  0.25031     O
O      0.26446  0.63145  0.74969     O
C       0.2695    0.064  0.13098     C
C       0.2695    0.064  0.86902     C
C       0.2695    0.936  0.13098     C
C       0.2695    0.936  0.86902     C
C       0.2708      0.0   0.0499     C
C       0.2708      0.0   0.9501     C
C       0.2712      0.0   0.1063     C
C       0.2712      0.0   0.8937     C
H       0.2725   0.1063    0.114     H
H       0.2725   0.1063    0.886     H
H       0.2725   0.8937    0.114     H
H       0.2725   0.8937    0.886     H
Cu     0.28116  0.28116  0.21259    Cu
Cu     0.28116  0.28116  0.78741    Cu
Cu     0.28116  0.71884  0.21259    Cu
Cu     0.28116  0.71884  0.78741    Cu
O       0.2864    0.187  0.18714     O
O       0.2864    0.187  0.81286     O
O       0.2864    0.813  0.18714     O
O       0.2864    0.813  0.81286     O
C       0.2927      0.5   0.4732     C
C       0.2927      0.5   0.5268     C
O        0.313   0.2136  0.31286     O
O        0.313   0.2136  0.68714     O
O        0.313   0.7864  0.31286     O
O        0.313   0.7864  0.68714     O
H       0.3178   0.4512   0.4592     H
H       0.3178   0.4512   0.5408     H
H       0.3178   0.5488   0.4592     H
H       0.3178   0.5488   0.5408     H
C       0.3341      0.0   0.0273     C
C       0.3341      0.0   0.9727     C
H       0.3617    0.046   0.0412     H
H       0.3617    0.046   0.9588     H
H       0.3617    0.954   0.0412     H
H       0.3617    0.954   0.9588     H
C       0.3622   0.4681    0.447     C
C       0.3622   0.4681    0.553     C
C       0.3622   0.5319    0.447     C
C       0.3622   0.5319    0.553     C
C       0.3652   0.2369  0.29314     C
C       0.3652   0.2369  0.70686     C
C       0.3652   0.7631  0.29314     C
C       0.3652   0.7631  0.70686     C
O      0.36855  0.26446  0.25031     O
O      0.36855  0.26446  0.74969     O
O      0.36855  0.73554  0.25031     O
O      0.36855  0.73554  0.74969     O
H        0.369   0.4512   0.4145     H
H        0.369   0.4512   0.5855     H
H        0.369   0.5488   0.4145     H
H        0.369   0.5488   0.5855     H
H       0.3937   0.2275    0.386     H
H       0.3937   0.2275    0.614     H
H       0.3937   0.7725    0.386     H
H       0.3937   0.7725    0.614     H
H       0.3997   0.4512   0.4673     H
H       0.3997   0.4512   0.5327     H
H       0.3997   0.5488   0.4673     H
H       0.3997   0.5488   0.5327     H
C       0.4066   0.0292   0.0523     C
C       0.4066   0.0292   0.9477     C
C       0.4066   0.9708   0.0523     C
C       0.4066   0.9708   0.9477     C
H        0.415    0.046   0.0847     H
H        0.415    0.046   0.9153     H
H        0.415    0.954   0.0847     H
H        0.415    0.954   0.9153     H
C       0.4358   0.2369  0.31815     C
C       0.4358   0.2369  0.68185     C
C       0.4358   0.7631  0.31815     C
C       0.4358   0.7631  0.68185     C
C        0.436   0.2305  0.36902     C
C        0.436   0.2305  0.63098     C
C        0.436   0.7695  0.36902     C
C        0.436   0.7695  0.63098     C
H       0.4432    0.046   0.0312     H
H       0.4432    0.046   0.9688     H
H       0.4432    0.954   0.0312     H
H       0.4432    0.954   0.9688     H
H       0.4512   0.3178   0.4592     H
H       0.4512   0.3178   0.5408     H
H       0.4512    0.369   0.4145     H
H       0.4512    0.369   0.5855     H
H       0.4512   0.3997   0.4673     H
H       0.4512   0.3997   0.5327     H
H       0.4512   0.6003   0.4673     H
H       0.4512   0.6003   0.5327     H
H       0.4512    0.631   0.4145     H
H       0.4512    0.631   0.5855     H
H       0.4512   0.6822   0.4592     H
H       0.4512   0.6822   0.5408     H
H        0.454   0.0568   0.4688     H
H        0.454   0.0568   0.5312     H
H        0.454    0.085   0.4153     H
H        0.454    0.085   0.5847     H
H        0.454   0.1383   0.4588     H
H        0.454   0.1383   0.5412     H
H        0.454   0.8617   0.4588     H
H        0.454   0.8617   0.5412     H
H        0.454    0.915   0.4153     H
H        0.454    0.915   0.5847     H
H        0.454   0.9432   0.4688     H
H        0.454   0.9432   0.5312     H
C       0.4681   0.3622    0.447     C
C       0.4681   0.3622    0.553     C
C       0.4681   0.6378    0.447     C
C       0.4681   0.6378    0.553     C
C       0.4708   0.0934   0.4477     C
C       0.4708   0.0934   0.5523     C
C       0.4708   0.9066   0.4477     C
C       0.4708   0.9066   0.5523     C
C          0.5   0.1659   0.4727     C
C          0.5   0.1659   0.5273     C
C          0.5   0.2288   0.3937     C
C          0.5   0.2288   0.6063     C
C          0.5   0.2292   0.4501     C
C          0.5   0.2292   0.5499     C
C          0.5   0.2415   0.2934     C
C          0.5   0.2415   0.7066     C
H          0.5   0.2477   0.2599     H
H          0.5   0.2477   0.7401     H
C          0.5   0.2927   0.4732     C
C          0.5   0.2927   0.5268     C
C          0.5   0.7073   0.4732     C
C          0.5   0.7073   0.5268     C
H          0.5   0.7523   0.2599     H
H          0.5   0.7523   0.7401     H
C          0.5   0.7585   0.2934     C
C          0.5   0.7585   0.7066     C
C          0.5   0.7708   0.4501     C
C          0.5   0.7708   0.5499     C
C          0.5   0.7712   0.3937     C
C          0.5   0.7712   0.6063     C
C          0.5   0.8341   0.4727     C
C          0.5   0.8341   0.5273     C
C       0.5292   0.0934   0.4477     C
C       0.5292   0.0934   0.5523     C
C       0.5292   0.9066   0.4477     C
C       0.5292   0.9066   0.5523     C
C       0.5319   0.3622    0.447     C
C       0.5319   0.3622    0.553     C
C       0.5319   0.6378    0.447     C
C       0.5319   0.6378    0.553     C
H        0.546   0.0568   0.4688     H
H        0.546   0.0568   0.5312     H
H        0.546    0.085   0.4153     H
H        0.546    0.085   0.5847     H
H        0.546   0.1383   0.4588     H
H        0.546   0.1383   0.5412     H
H        0.546   0.8617   0.4588     H
H        0.546   0.8617   0.5412     H
H        0.546    0.915   0.4153     H
H        0.546    0.915   0.5847     H
H        0.546   0.9432   0.4688     H
H        0.546   0.9432   0.5312     H
H       0.5488   0.3178   0.4592     H
H       0.5488   0.3178   0.5408     H
H       0.5488    0.369   0.4145     H
H       0.5488    0.369   0.5855     H
H       0.5488   0.3997   0.4673     H
H       0.5488   0.3997   0.5327     H
H       0.5488   0.6003   0.4673     H
H       0.5488   0.6003   0.5327     H
H       0.5488    0.631   0.4145     H
H       0.5488    0.631   0.5855     H
H       0.5488   0.6822   0.4592     H
H       0.5488   0.6822   0.5408     H
H       0.5568    0.046   0.0312     H
H       0.5568    0.046   0.9688     H
H       0.5568    0.954   0.0312     H
H       0.5568    0.954   0.9688     H
C        0.564   0.2305  0.36902     C
C        0.564   0.2305  0.63098     C
C        0.564   0.7695  0.36902     C
C        0.564   0.7695  0.63098     C
C       0.5642   0.2369  0.31815     C
C       0.5642   0.2369  0.68185     C
C       0.5642   0.7631  0.31815     C
C       0.5642   0.7631  0.68185     C
H        0.585    0.046   0.0847     H
H        0.585    0.046   0.9153     H
H        0.585    0.954   0.0847     H
H        0.585    0.954   0.9153     H
C       0.5934   0.0292   0.0523     C
C       0.5934   0.0292   0.9477     C
C       0.5934   0.9708   0.0523     C
C       0.5934   0.9708   0.9477     C
H       0.6003   0.4512   0.4673     H
H       0.6003   0.4512   0.5327     H
H       0.6003   0.5488   0.4673     H
H       0.6003   0.5488   0.5327     H
H       0.6063   0.2275    0.386     H
H       0.6063   0.2275    0.614     H
H       0.6063   0.7725    0.386     H
H       0.6063   0.7725    0.614     H
H        0.631   0.4512   0.4145     H
H        0.631   0.4512   0.5855     H
H        0.631   0.5488   0.4145     H
H        0.631   0.5488   0.5855     H
O      0.63145  0.26446  0.25031     O
O      0.63145  0.26446  0.74969     O
O      0.63145  0.73554  0.25031     O
O      0.63145  0.73554  0.74969     O
C       0.6348   0.2369  0.29314     C
C       0.6348   0.2369  0.70686     C
C       0.6348   0.7631  0.29314     C
C       0.6348   0.7631  0.70686     C
C       0.6378   0.4681    0.447     C
C       0.6378   0.4681    0.553     C
C       0.6378   0.5319    0.447     C
C       0.6378   0.5319    0.553     C
H       0.6383    0.046   0.0412     H
H       0.6383    0.046   0.9588     H
H       0.6383    0.954   0.0412     H
H       0.6383    0.954   0.9588     H
C       0.6659      0.0   0.0273     C
C       0.6659      0.0   0.9727     C
H       0.6822   0.4512   0.4592     H
H       0.6822   0.4512   0.5408     H
H       0.6822   0.5488   0.4592     H
H       0.6822   0.5488   0.5408     H
O        0.687   0.2136  0.31286     O
O        0.687   0.2136  0.68714     O
O        0.687   0.7864  0.31286     O
O        0.687   0.7864  0.68714     O
C       0.7073      0.5   0.4732     C
C       0.7073      0.5   0.5268     C
O       0.7136    0.187  0.18714     O
O       0.7136    0.187  0.81286     O
O       0.7136    0.813  0.18714     O
O       0.7136    0.813  0.81286     O
Cu     0.71884  0.28116  0.21259    Cu
Cu     0.71884  0.28116  0.78741    Cu
Cu     0.71884  0.71884  0.21259    Cu
Cu     0.71884  0.71884  0.78741    Cu
H       0.7275   0.1063    0.114     H
H       0.7275   0.1063    0.886     H
H       0.7275   0.8937    0.114     H
H       0.7275   0.8937    0.886     H
C       0.7288      0.0   0.1063     C
C       0.7288      0.0   0.8937     C
C       0.7292      0.0   0.0499     C
C       0.7292      0.0   0.9501     C
C       0.7305    0.064  0.13098     C
C       0.7305    0.064  0.86902     C
C       0.7305    0.936  0.13098     C
C       0.7305    0.936  0.86902     C
O      0.73554  0.36855  0.25031     O
O      0.73554  0.36855  0.74969     O
O      0.73554  0.63145  0.25031     O
O      0.73554  0.63145  0.74969     O
C       0.7369   0.0642  0.18185     C
C       0.7369   0.0642  0.81815     C
C       0.7369   0.1348  0.20686     C
C       0.7369   0.1348  0.79314     C
C       0.7369   0.8652  0.20686     C
C       0.7369   0.8652  0.79314     C
C       0.7369   0.9358  0.18185     C
C       0.7369   0.9358  0.81815     C
C       0.7415      0.0   0.2066     C
C       0.7415      0.0   0.7934     C
H       0.7477      0.0   0.2401     H
H       0.7477      0.0   0.7599     H
H       0.7523      0.5   0.2599     H
H       0.7523      0.5   0.7401     H
C       0.7585      0.5   0.2934     C
C       0.7585      0.5   0.7066     C
C       0.7631   0.3652  0.29314     C
C       0.7631   0.3652  0.70686     C
C       0.7631   0.4358  0.31815     C
C       0.7631   0.4358  0.68185     C
C       0.7631   0.5642  0.31815     C
C       0.7631   0.5642  0.68185     C
C       0.7631   0.6348  0.29314     C
C       0.7631   0.6348  0.70686     C
O      0.76446  0.13145  0.24969     O
O      0.76446  0.13145  0.75031     O
O      0.76446  0.86855  0.24969     O
O      0.76446  0.86855  0.75031     O
C       0.7695    0.436  0.36902     C
C       0.7695    0.436  0.63098     C
C       0.7695    0.564  0.36902     C
C       0.7695    0.564  0.63098     C
C       0.7708      0.5   0.4501     C
C       0.7708      0.5   0.5499     C
C       0.7712      0.5   0.3937     C
C       0.7712      0.5   0.6063     C
H       0.7725   0.3937    0.386     H
H       0.7725   0.3937    0.614     H
H       0.7725   0.6063    0.386     H
H       0.7725   0.6063    0.614     H
Cu     0.78116  0.21884  0.28741    Cu
Cu     0.78116  0.21884  0.71259    Cu
Cu     0.78116  0.78116  0.28741    Cu
Cu     0.78116  0.78116  0.71259    Cu
O       0.7864    0.313  0.31286     O
O       0.7864    0.313  0.68714     O
O       0.7864    0.687  0.31286     O
O       0.7864    0.687  0.68714     O
C       0.7927      0.0   0.0268     C
C       0.7927      0.0   0.9732     C
O        0.813   0.2864  0.18714     O
O        0.813   0.2864  0.81286     O
O        0.813   0.7136  0.18714     O
O        0.813   0.7136  0.81286     O
H       0.8178   0.0488   0.0408     H
H       0.8178   0.0488   0.9592     H
H       0.8178   0.9512   0.0408     H
H       0.8178   0.9512   0.9592     H
C       0.8341      0.5   0.4727     C
C       0.8341      0.5   0.5273     C
H       0.8617    0.454   0.4588     H
H       0.8617    0.454   0.5412     H
H       0.8617    0.546   0.4588     H
H       0.8617    0.546   0.5412     H
C       0.8622   0.0319    0.053     C
C       0.8622   0.0319    0.947     C
C       0.8622   0.9681    0.053     C
C       0.8622   0.9681    0.947     C
C       0.8652   0.2631  0.20686     C
C       0.8652   0.2631  0.79314     C
C       0.8652   0.7369  0.20686     C
C       0.8652   0.7369  0.79314     C
O      0.86855  0.23554  0.24969     O
O      0.86855  0.23554  0.75031     O
O      0.86855  0.76446  0.24969     O
O      0.86855  0.76446  0.75031     O
H        0.869   0.0488   0.0855     H
H        0.869   0.0488   0.9145     H
H        0.869   0.9512   0.0855     H
H        0.869   0.9512   0.9145     H
H       0.8937   0.2725    0.114     H
H       0.8937   0.2725    0.886     H
H       0.8937   0.7275    0.114     H
H       0.8937   0.7275    0.886     H
H       0.8997   0.0488   0.0327     H
H       0.8997   0.0488   0.9673     H
H       0.8997   0.9512   0.0327     H
H       0.8997   0.9512   0.9673     H
C       0.9066   0.4708   0.4477     C
C       0.9066   0.4708   0.5523     C
C       0.9066   0.5292   0.4477     C
C       0.9066   0.5292   0.5523     C
H        0.915    0.454   0.4153     H
H        0.915    0.454   0.5847     H
H        0.915    0.546   0.4153     H
H        0.915    0.546   0.5847     H
C       0.9358   0.2631  0.18185     C
C       0.9358   0.2631  0.81815     C
C       0.9358   0.7369  0.18185     C
C       0.9358   0.7369  0.81815     C
C        0.936   0.2695  0.13098     C
C        0.936   0.2695  0.86902     C
C        0.936   0.7305  0.13098     C
C        0.936   0.7305  0.86902     C
H       0.9432    0.454   0.4688     H
H       0.9432    0.454   0.5312     H
H       0.9432    0.546   0.4688     H
H       0.9432    0.546   0.5312     H
H       0.9512   0.1003   0.0327     H
H       0.9512   0.1003   0.9673     H
H       0.9512    0.131   0.0855     H
H       0.9512    0.131   0.9145     H
H       0.9512   0.1822   0.0408     H
H       0.9512   0.1822   0.9592     H
H       0.9512   0.8178   0.0408     H
H       0.9512   0.8178   0.9592     H
H       0.9512    0.869   0.0855     H
H       0.9512    0.869   0.9145     H
H       0.9512   0.8997   0.0327     H
H       0.9512   0.8997   0.9673     H
H        0.954   0.3617   0.0412     H
H        0.954   0.3617   0.9588     H
H        0.954    0.415   0.0847     H
H        0.954    0.415   0.9153     H
H        0.954   0.4432   0.0312     H
H        0.954   0.4432   0.9688     H
H        0.954   0.5568   0.0312     H
H        0.954   0.5568   0.9688     H
H        0.954    0.585   0.0847     H
H        0.954    0.585   0.9153     H
H        0.954   0.6383   0.0412     H
H        0.954   0.6383   0.9588     H
C       0.9681   0.1378    0.053     C
C       0.9681   0.1378    0.947     C
C       0.9681   0.8622    0.053     C
C       0.9681   0.8622    0.947     C
C       0.9708   0.4066   0.0523     C
C       0.9708   0.4066   0.9477     C
C       0.9708   0.5934   0.0523     C
C       0.9708   0.5934   0.9477     C
