data_I
_chemical_name_common  '/home/zhangsd/repos/MofS-CGCNN/ML/data/WS24/clean_cifs/HUVHOX'
_cell_length_a 15.44400
_cell_length_b 17.89500
_cell_length_c  8.97900
_cell_angle_alpha 90.00000
_cell_angle_beta  90.00000
_cell_angle_gamma 90.00000
_space_group_name_H-M_alt      'P 1'


loop_
_space_group_symop_operation_xyz
  'x, y, z' 

loop_
_atom_site_label
_atom_site_fract_x
_atom_site_fract_y
_atom_site_fract_z
_atom_site_type_symbol
N       0.0041   0.1837   0.1368     N
N       0.0041   0.3163   0.1368     N
P      0.01326  0.01468  0.76924     P
P      0.01326  0.48532  0.76924     P
O       0.0191   0.0375   0.6066     O
O       0.0191   0.4625   0.6066     O
O       0.0355   0.0807   0.8649     O
O       0.0355   0.4193   0.8649     O
C       0.0366     0.25   0.0871     C
C       0.0563   0.6871   0.7553     C
C       0.0563   0.8129   0.7553     C
O       0.0738     0.02   0.1954     O
O       0.0738     0.48   0.1954     O
N       0.0848     0.75    0.695     N
Zn     0.08578  0.10492  0.05717    Zn
Zn     0.08578  0.39508  0.05717    Zn
H       0.0885   0.5724   0.9092     H
H       0.0885   0.9276   0.9092     H
N       0.0919   0.6219   0.7099     N
N       0.0919   0.8781   0.7099     N
C       0.0949    0.556   0.8068     C
C       0.0949    0.944   0.8068     C
O       0.0954     0.25   0.9951     O
H       0.1328   0.6613   0.5164     H
H       0.1328   0.8387   0.5164     H
H       0.1365   0.5741   0.5267     H
H       0.1365   0.9259   0.5267     H
C       0.1479   0.6199   0.5811     C
C       0.1479   0.8801   0.5811     C
H       0.1515   0.5331   0.7976     H
H       0.1515   0.9669   0.7976     H
O       0.2087   0.1079    0.003     O
O       0.2087   0.3921    0.003     O
O       0.2282   0.1405   0.2373     O
O       0.2282   0.3595   0.2373     O
C       0.2434    0.624    0.614     C
C       0.2434    0.876    0.614     C
C       0.2566    0.124    0.114     C
C       0.2566    0.376    0.114     C
O       0.2718   0.6405   0.7373     O
O       0.2718   0.8595   0.7373     O
O       0.2913   0.6079    0.503     O
O       0.2913   0.8921    0.503     O
H       0.3485   0.0331   0.2976     H
H       0.3485   0.4669   0.2976     H
C       0.3521   0.1199   0.0811     C
C       0.3521   0.3801   0.0811     C
H       0.3635   0.0741   0.0267     H
H       0.3635   0.4259   0.0267     H
H       0.3672   0.1613   0.0164     H
H       0.3672   0.3387   0.0164     H
O       0.4046     0.75   0.4951     O
C       0.4051    0.056   0.3068     C
C       0.4051    0.444   0.3068     C
N       0.4081   0.1219   0.2099     N
N       0.4081   0.3781   0.2099     N
H       0.4115   0.0724   0.4092     H
H       0.4115   0.4276   0.4092     H
Zn     0.41422  0.60492  0.55717    Zn
Zn     0.41422  0.89508  0.55717    Zn
N       0.4152     0.25    0.195     N
O       0.4262     0.52   0.6954     O
O       0.4262     0.98   0.6954     O
C       0.4437   0.1871   0.2553     C
C       0.4437   0.3129   0.2553     C
C       0.4634     0.75   0.5871     C
O       0.4645   0.5807   0.3649     O
O       0.4645   0.9193   0.3649     O
O       0.4809   0.5375   0.1066     O
O       0.4809   0.9625   0.1066     O
P      0.48674  0.51468  0.26924     P
P      0.48674  0.98532  0.26924     P
N       0.4959   0.6837   0.6368     N
N       0.4959   0.8163   0.6368     N
N       0.5041   0.1837   0.3632     N
N       0.5041   0.3163   0.3632     N
P      0.51326  0.01468  0.73076     P
P      0.51326  0.48532  0.73076     P
O       0.5191   0.0375   0.8934     O
O       0.5191   0.4625   0.8934     O
O       0.5355   0.0807   0.6351     O
O       0.5355   0.4193   0.6351     O
C       0.5366     0.25   0.4129     C
C       0.5563   0.6871   0.7447     C
C       0.5563   0.8129   0.7447     C
O       0.5738     0.02   0.3046     O
O       0.5738     0.48   0.3046     O
N       0.5848     0.75    0.805     N
Zn     0.58578  0.10492  0.44283    Zn
Zn     0.58578  0.39508  0.44283    Zn
H       0.5885   0.5724   0.5908     H
H       0.5885   0.9276   0.5908     H
N       0.5919   0.6219   0.7901     N
N       0.5919   0.8781   0.7901     N
C       0.5949    0.556   0.6932     C
C       0.5949    0.944   0.6932     C
O       0.5954     0.25   0.5049     O
H       0.6328   0.6613   0.9836     H
H       0.6328   0.8387   0.9836     H
H       0.6365   0.5741   0.9733     H
H       0.6365   0.9259   0.9733     H
C       0.6479   0.6199   0.9189     C
C       0.6479   0.8801   0.9189     C
H       0.6515   0.5331   0.7024     H
H       0.6515   0.9669   0.7024     H
O       0.7087   0.1079    0.497     O
O       0.7087   0.3921    0.497     O
O       0.7282   0.1405   0.2627     O
O       0.7282   0.3595   0.2627     O
C       0.7434    0.624    0.886     C
C       0.7434    0.876    0.886     C
C       0.7566    0.124    0.386     C
C       0.7566    0.376    0.386     C
O       0.7718   0.6405   0.7627     O
O       0.7718   0.8595   0.7627     O
O       0.7913   0.6079    0.997     O
O       0.7913   0.8921    0.997     O
H       0.8485   0.0331   0.2024     H
H       0.8485   0.4669   0.2024     H
C       0.8521   0.1199   0.4189     C
C       0.8521   0.3801   0.4189     C
H       0.8635   0.0741   0.4733     H
H       0.8635   0.4259   0.4733     H
H       0.8672   0.1613   0.4836     H
H       0.8672   0.3387   0.4836     H
O       0.9046     0.75   0.0049     O
C       0.9051    0.056   0.1932     C
C       0.9051    0.444   0.1932     C
N       0.9081   0.1219   0.2901     N
N       0.9081   0.3781   0.2901     N
H       0.9115   0.0724   0.0908     H
H       0.9115   0.4276   0.0908     H
Zn     0.91422  0.60492  0.94283    Zn
Zn     0.91422  0.89508  0.94283    Zn
N       0.9152     0.25    0.305     N
O       0.9262     0.52   0.8046     O
O       0.9262     0.98   0.8046     O
C       0.9437   0.1871   0.2447     C
C       0.9437   0.3129   0.2447     C
C       0.9634     0.75   0.9129     C
O       0.9645   0.5807   0.1351     O
O       0.9645   0.9193   0.1351     O
O       0.9809   0.5375   0.3934     O
O       0.9809   0.9625   0.3934     O
P      0.98674  0.51468  0.23076     P
P      0.98674  0.98532  0.23076     P
N       0.9959   0.6837   0.8632     N
N       0.9959   0.8163   0.8632     N
