data_I
_chemical_name_common  '/home/zhangsd/repos/MofS-CGCNN/ML/data/WS24/clean_cifs/HUYFAJ'
_cell_length_a 30.63000
_cell_length_b 30.63000
_cell_length_c 27.81100
_cell_angle_alpha 90.00000
_cell_angle_beta  90.00000
_cell_angle_gamma 90.00000
_space_group_name_H-M_alt      'P 1'


loop_
_space_group_symop_operation_xyz
  'x, y, z' 

loop_
_atom_site_label
_atom_site_fract_x
_atom_site_fract_y
_atom_site_fract_z
_atom_site_type_symbol
H          0.0   0.1464   0.2422     H
H          0.0   0.1464   0.7578     H
C          0.0   0.1667   0.2679     C
C          0.0   0.1667   0.7321     C
C          0.0   0.2274   0.3439     C
C          0.0   0.2274   0.6561     C
H          0.0   0.2572   0.1929     H
H          0.0   0.2572   0.8071     H
C          0.0    0.258    0.381     C
C          0.0    0.258    0.619     C
Cu         0.0   0.2702      0.0    Cu
C          0.0    0.278   0.2182     C
C          0.0    0.278   0.7818     C
C          0.0   0.3349   0.2953     C
C          0.0   0.3349   0.7047     C
H          0.0   0.3546   0.3217     H
H          0.0   0.3546   0.6783     H
Cu         0.0    0.357      0.0    Cu
Cu         0.0    0.643      0.0    Cu
H          0.0   0.6454   0.3217     H
H          0.0   0.6454   0.6783     H
C          0.0   0.6651   0.2953     C
C          0.0   0.6651   0.7047     C
C          0.0    0.722   0.2182     C
C          0.0    0.722   0.7818     C
Cu         0.0   0.7298      0.0    Cu
C          0.0    0.742    0.381     C
C          0.0    0.742    0.619     C
H          0.0   0.7428   0.1929     H
H          0.0   0.7428   0.8071     H
C          0.0   0.7726   0.3439     C
C          0.0   0.7726   0.6561     C
C          0.0   0.8333   0.2679     C
C          0.0   0.8333   0.7321     C
H          0.0   0.8536   0.2422     H
H          0.0   0.8536   0.7578     H
C       0.0126   0.2878      0.5     C
C       0.0126   0.7122      0.5     C
C       0.0152   0.2851   0.4135     C
C       0.0152   0.2851   0.5865     C
C       0.0152   0.7149   0.4135     C
C       0.0152   0.7149   0.5865     C
C       0.0222   0.3073   0.4568     C
C       0.0222   0.3073   0.5432     C
C       0.0222   0.6927   0.4568     C
C       0.0222   0.6927   0.5432     C
C        0.039    0.293   0.2366     C
C        0.039    0.293   0.7634     C
C        0.039    0.707   0.2366     C
C        0.039    0.707   0.7634     C
C      0.03906   0.2122  0.32412     C
C      0.03906   0.2122  0.67588     C
C      0.03906   0.7878  0.32412     C
C      0.03906   0.7878  0.67588     C
C      0.03951  0.18184  0.28708     C
C      0.03951  0.18184  0.71292     C
C      0.03951  0.81816  0.28708     C
C      0.03951  0.81816  0.71292     C
C      0.03986  0.32081   0.2763     C
C      0.03986  0.32081   0.7237     C
C      0.03986  0.67919   0.2763     C
C      0.03986  0.67919   0.7237     C
O       0.0444  0.27645  0.04921     O
O       0.0444  0.27645  0.95079     O
O       0.0444  0.72355  0.04921     O
O       0.0444  0.72355  0.95079     O
O      0.04503  0.34991  0.05011     O
O      0.04503  0.34991  0.94989     O
O      0.04503  0.65009  0.05011     O
O      0.04503  0.65009  0.94989     O
C       0.0514   0.3484   0.4579     C
C       0.0514   0.3484   0.5421     C
C       0.0514   0.6516   0.4579     C
C       0.0514   0.6516   0.5421     C
C      0.05817  0.31281  0.06458     C
C      0.05817  0.31281  0.93542     C
C      0.05817  0.68719  0.06458     C
C      0.05817  0.68719  0.93542     C
C       0.0654   0.3657      0.5     C
C       0.0654   0.6343      0.5     C
H       0.0656   0.2843   0.2221     H
H       0.0656   0.2843   0.7779     H
H       0.0656   0.7157   0.2221     H
H       0.0656   0.7157   0.7779     H
H        0.066    0.223   0.3363     H
H        0.066    0.223   0.6637     H
H        0.066    0.777   0.3363     H
H        0.066    0.777   0.6637     H
C       0.0795   0.3349   0.2972     C
C       0.0795   0.3349   0.7028     C
C       0.0795   0.6651   0.2972     C
C       0.0795   0.6651   0.7028     C
O      0.08088  0.14563  0.22794     O
O      0.08088  0.14563  0.77206     O
O      0.08088  0.85437  0.22794     O
O      0.08088  0.85437  0.77206     O
C      0.08198  0.16764   0.2661     C
C      0.08198  0.16764   0.7339     C
C      0.08198  0.83236   0.2661     C
C      0.08198  0.83236   0.7339     C
C      0.09055  0.31177  0.10458     C
C      0.09055  0.31177  0.89542     C
C      0.09055  0.68823  0.10458     C
C      0.09055  0.68823  0.89542     C
H       0.0926   0.2456   0.1086     H
H       0.0926   0.2456   0.8914     H
H       0.0926   0.7544   0.1086     H
H       0.0926   0.7544   0.8914     H
H        0.097   0.3771   0.1123     H
H        0.097   0.3771   0.8877     H
H        0.097   0.6229   0.1123     H
H        0.097   0.6229   0.8877     H
C      0.10357  0.27167  0.12253     C
C      0.10357  0.27167  0.87747     C
C      0.10357  0.72833  0.12253     C
C      0.10357  0.72833  0.87747     C
C       0.1064  0.34971  0.12447     C
C       0.1064  0.34971  0.87553     C
C       0.1064  0.65029  0.12447     C
C       0.1064  0.65029  0.87553     C
C      0.11237  0.34786   0.3161     C
C      0.11237  0.34786   0.6839     C
C      0.11237  0.65214   0.3161     C
C      0.11237  0.65214   0.6839     C
O      0.11622  0.18043  0.28687     O
O      0.11622  0.18043  0.71313     O
O      0.11622  0.81957  0.28687     O
O      0.11622  0.81957  0.71313     O
H       0.1229    0.403   0.3877     H
H       0.1229    0.403   0.6123     H
H       0.1229    0.597   0.3877     H
H       0.1229    0.597   0.6123     H
O      0.12939  0.19273  0.16271     O
O      0.12939  0.19273  0.83729     O
O      0.12939  0.80727  0.16271     O
O      0.12939  0.80727  0.83729     O
C      0.13257  0.26933  0.16072     C
C      0.13257  0.26933  0.83928     C
C      0.13257  0.73067  0.16072     C
C      0.13257  0.73067  0.83928     C
Cu     0.13376  0.13376  0.19001    Cu
Cu     0.13376  0.13376  0.80999    Cu
Cu     0.13376  0.86624  0.19001    Cu
Cu     0.13376  0.86624  0.80999    Cu
C       0.1343   0.4346      0.0     C
C       0.1343   0.5654      0.0     C
C      0.13639  0.34834   0.1627     C
C      0.13639  0.34834   0.8373     C
C      0.13639  0.65166   0.1627     C
C      0.13639  0.65166   0.8373     C
Cu       0.143      0.5      0.5    Cu
C      0.14329  0.22607  0.18323     C
C      0.14329  0.22607  0.81677     C
C      0.14329  0.77393  0.18323     C
C      0.14329  0.77393  0.81677     C
H       0.1454      0.5   0.1783     H
H       0.1454      0.5   0.8217     H
O      0.14563  0.08088  0.22794     O
O      0.14563  0.08088  0.77206     O
O      0.14563  0.91912  0.22794     O
O      0.14563  0.91912  0.77206     O
H       0.1464      0.0   0.2422     H
H       0.1464      0.0   0.7578     H
C       0.1491  0.30723   0.1806     C
C       0.1491  0.30723   0.8194     C
C       0.1491  0.69277   0.1806     C
C       0.1491  0.69277   0.8194     C
O      0.15009  0.45497  0.44989     O
O      0.15009  0.45497  0.55011     O
O      0.15009  0.54503  0.44989     O
O      0.15009  0.54503  0.55011     O
C      0.15029   0.3936  0.37553     C
C      0.15029   0.3936  0.62447     C
C      0.15029   0.6064  0.37553     C
C      0.15029   0.6064  0.62447     C
C       0.1516   0.4486   0.0421     C
C       0.1516   0.4486   0.9579     C
C       0.1516   0.5514   0.0421     C
C       0.1516   0.5514   0.9579     C
C      0.15166  0.36361   0.3373     C
C      0.15166  0.36361   0.6627     C
C      0.15166  0.63639   0.3373     C
C      0.15166  0.63639   0.6627     C
C      0.15214  0.38763   0.1839     C
C      0.15214  0.38763   0.8161     C
C      0.15214  0.61237   0.1839     C
C      0.15214  0.61237   0.8161     C
O      0.16376  0.22714  0.22256     O
O      0.16376  0.22714  0.77744     O
O      0.16376  0.77286  0.22256     O
O      0.16376  0.77286  0.77744     O
C       0.1651   0.4205   0.2028     C
C       0.1651   0.4205   0.7972     C
C       0.1651      0.5   0.2047     C
C       0.1651      0.5   0.7953     C
C       0.1651   0.5795   0.2028     C
C       0.1651   0.5795   0.7972     C
C       0.1667      0.0   0.2679     C
C       0.1667      0.0   0.7321     C
C      0.16764  0.08198   0.2661     C
C      0.16764  0.08198   0.7339     C
C      0.16764  0.91802   0.2661     C
C      0.16764  0.91802   0.7339     C
H       0.1692   0.3056   0.2065     H
H       0.1692   0.3056   0.7935     H
H       0.1692   0.6944   0.2065     H
H       0.1692   0.6944   0.7935     H
Cu     0.17514  0.17514   0.2606    Cu
Cu     0.17514  0.17514   0.7394    Cu
Cu     0.17514  0.82486   0.2606    Cu
Cu     0.17514  0.82486   0.7394    Cu
C      0.17919  0.46014   0.2237     C
C      0.17919  0.46014   0.7763     C
C      0.17919  0.53986   0.2237     C
C      0.17919  0.53986   0.7763     C
O      0.18043  0.11622  0.28687     O
O      0.18043  0.11622  0.71313     O
O      0.18043  0.88378  0.28687     O
O      0.18043  0.88378  0.71313     O
C      0.18184  0.03951  0.28708     C
C      0.18184  0.03951  0.71292     C
C      0.18184  0.96049  0.28708     C
C      0.18184  0.96049  0.71292     C
C      0.18719  0.44183  0.43542     C
C      0.18719  0.44183  0.56458     C
C      0.18719  0.55817  0.43542     C
C      0.18719  0.55817  0.56458     C
C      0.18823  0.40945  0.39542     C
C      0.18823  0.40945  0.60458     C
C      0.18823  0.59055  0.39542     C
C      0.18823  0.59055  0.60458     C
C       0.1927   0.4778   0.0432     C
C       0.1927   0.4778   0.9568     C
C       0.1927   0.5222   0.0432     C
C       0.1927   0.5222   0.9568     C
O      0.19273  0.12939  0.16271     O
O      0.19273  0.12939  0.83729     O
O      0.19273  0.87061  0.16271     O
O      0.19273  0.87061  0.83729     O
C      0.19277   0.3509   0.3194     C
C      0.19277   0.3509   0.6806     C
C      0.19277   0.6491   0.3194     C
C      0.19277   0.6491   0.6806     C
H       0.1944   0.3308   0.2935     H
H       0.1944   0.3308   0.7065     H
H       0.1944   0.6692   0.2935     H
H       0.1944   0.6692   0.7065     H
C        0.207    0.461   0.2634     C
C        0.207    0.461   0.7366     C
C        0.207    0.539   0.2634     C
C        0.207    0.539   0.7366     C
C       0.2122  0.03906  0.32412     C
C       0.2122  0.03906  0.67588     C
C       0.2122   0.4874      0.0     C
C       0.2122   0.5126      0.0     C
C       0.2122  0.96094  0.32412     C
C       0.2122  0.96094  0.67588     C
C       0.2149   0.4848   0.0865     C
C       0.2149   0.4848   0.9135     C
C       0.2149   0.5152   0.0865     C
C       0.2149   0.5152   0.9135     C
H       0.2157   0.4344   0.2779     H
H       0.2157   0.4344   0.7221     H
H       0.2157   0.5656   0.2779     H
H       0.2157   0.5656   0.7221     H
C        0.222      0.5   0.2818     C
C        0.222      0.5   0.7182     C
H        0.223    0.066   0.3363     H
H        0.223    0.066   0.6637     H
H        0.223    0.934   0.3363     H
H        0.223    0.934   0.6637     H
O      0.22355   0.4556  0.45079     O
O      0.22355   0.4556  0.54921     O
O      0.22355   0.5444  0.45079     O
O      0.22355   0.5444  0.54921     O
C      0.22607  0.14329  0.18323     C
C      0.22607  0.14329  0.81677     C
C      0.22607  0.85671  0.18323     C
C      0.22607  0.85671  0.81677     C
O      0.22714  0.16376  0.22256     O
O      0.22714  0.16376  0.77744     O
O      0.22714  0.83624  0.22256     O
O      0.22714  0.83624  0.77744     O
C       0.2274      0.0   0.3439     C
C       0.2274      0.0   0.6561     C
C      0.22833  0.39643  0.37747     C
C      0.22833  0.39643  0.62253     C
C      0.22833  0.60357  0.37747     C
C      0.22833  0.60357  0.62253     C
Cu      0.2298      0.5      0.5    Cu
C      0.23067  0.36743  0.33928     C
C      0.23067  0.36743  0.66072     C
C      0.23067  0.63257  0.33928     C
C      0.23067  0.63257  0.66072     C
C        0.242      0.5    0.119     C
C        0.242      0.5    0.881     C
H       0.2428      0.5   0.3071     H
H       0.2428      0.5   0.6929     H
H       0.2456   0.0926   0.1086     H
H       0.2456   0.0926   0.8914     H
H       0.2456   0.9074   0.1086     H
H       0.2456   0.9074   0.8914     H
H       0.2544   0.4074   0.3914     H
H       0.2544   0.4074   0.6086     H
H       0.2544   0.5926   0.3914     H
H       0.2544   0.5926   0.6086     H
H       0.2572      0.0   0.1929     H
H       0.2572      0.0   0.8071     H
C        0.258      0.0    0.381     C
C        0.258      0.0    0.619     C
C      0.26933  0.13257  0.16072     C
C      0.26933  0.13257  0.83928     C
C      0.26933  0.86743  0.16072     C
C      0.26933  0.86743  0.83928     C
Cu      0.2702      0.0      0.0    Cu
C      0.27167  0.10357  0.12253     C
C      0.27167  0.10357  0.87747     C
C      0.27167  0.89643  0.12253     C
C      0.27167  0.89643  0.87747     C
C       0.2726      0.5   0.1561     C
C       0.2726      0.5   0.8439     C
O      0.27286  0.33624  0.27744     O
O      0.27286  0.33624  0.72256     O
O      0.27286  0.66376  0.27744     O
O      0.27286  0.66376  0.72256     O
C      0.27393  0.35671  0.31677     C
C      0.27393  0.35671  0.68323     C
C      0.27393  0.64329  0.31677     C
C      0.27393  0.64329  0.68323     C
O      0.27645   0.0444  0.04921     O
O      0.27645   0.0444  0.95079     O
O      0.27645   0.9556  0.04921     O
O      0.27645   0.9556  0.95079     O
H        0.277    0.434   0.1637     H
H        0.277    0.434   0.8363     H
H        0.277    0.566   0.1637     H
H        0.277    0.566   0.8363     H
C        0.278      0.0   0.2182     C
C        0.278      0.0   0.7818     C
H       0.2843   0.0656   0.2221     H
H       0.2843   0.0656   0.7779     H
H       0.2843   0.9344   0.2221     H
H       0.2843   0.9344   0.7779     H
C       0.2851   0.0152   0.4135     C
C       0.2851   0.0152   0.5865     C
C       0.2851   0.9848   0.4135     C
C       0.2851   0.9848   0.5865     C
C       0.2878   0.0126      0.5     C
C       0.2878  0.46094  0.17588     C
C       0.2878  0.46094  0.82412     C
C       0.2878  0.53906  0.17588     C
C       0.2878  0.53906  0.82412     C
C       0.2878   0.9874      0.5     C
C        0.293    0.039   0.2366     C
C        0.293    0.039   0.7634     C
C        0.293    0.961   0.2366     C
C        0.293    0.961   0.7634     C
H       0.3056   0.1692   0.2065     H
H       0.3056   0.1692   0.7935     H
H       0.3056   0.8308   0.2065     H
H       0.3056   0.8308   0.7935     H
C      0.30723   0.1491   0.1806     C
C      0.30723   0.1491   0.8194     C
C      0.30723   0.8509   0.1806     C
C      0.30723   0.8509   0.8194     C
O      0.30727  0.37061  0.33729     O
O      0.30727  0.37061  0.66271     O
O      0.30727  0.62939  0.33729     O
O      0.30727  0.62939  0.66271     O
C       0.3073   0.0222   0.4568     C
C       0.3073   0.0222   0.5432     C
C       0.3073   0.9778   0.4568     C
C       0.3073   0.9778   0.5432     C
C      0.31177  0.09055  0.10458     C
C      0.31177  0.09055  0.89542     C
C      0.31177  0.90945  0.10458     C
C      0.31177  0.90945  0.89542     C
C      0.31281  0.05817  0.06458     C
C      0.31281  0.05817  0.93542     C
C      0.31281  0.94183  0.06458     C
C      0.31281  0.94183  0.93542     C
C      0.31816  0.46049  0.21292     C
C      0.31816  0.46049  0.78708     C
C      0.31816  0.53951  0.21292     C
C      0.31816  0.53951  0.78708     C
O      0.31957  0.38378  0.21313     O
O      0.31957  0.38378  0.78687     O
O      0.31957  0.61622  0.21313     O
O      0.31957  0.61622  0.78687     O
C      0.32081  0.03986   0.2763     C
C      0.32081  0.03986   0.7237     C
C      0.32081  0.96014   0.2763     C
C      0.32081  0.96014   0.7237     C
Cu     0.32486  0.32486   0.2394    Cu
Cu     0.32486  0.32486   0.7606    Cu
Cu     0.32486  0.67514   0.2394    Cu
Cu     0.32486  0.67514   0.7606    Cu
H       0.3308   0.1944   0.2935     H
H       0.3308   0.1944   0.7065     H
H       0.3308   0.8056   0.2935     H
H       0.3308   0.8056   0.7065     H
C      0.33236  0.41802   0.2339     C
C      0.33236  0.41802   0.7661     C
C      0.33236  0.58198   0.2339     C
C      0.33236  0.58198   0.7661     C
C       0.3333      0.5   0.2321     C
C       0.3333      0.5   0.7679     C
C       0.3349      0.0   0.2953     C
C       0.3349      0.0   0.7047     C
C       0.3349   0.0795   0.2972     C
C       0.3349   0.0795   0.7028     C
C       0.3349   0.9205   0.2972     C
C       0.3349   0.9205   0.7028     C
O      0.33624  0.27286  0.27744     O
O      0.33624  0.27286  0.72256     O
O      0.33624  0.72714  0.27744     O
O      0.33624  0.72714  0.72256     O
C      0.34786  0.11237   0.3161     C
C      0.34786  0.11237   0.6839     C
C      0.34786  0.88763   0.3161     C
C      0.34786  0.88763   0.6839     C
C      0.34834  0.13639   0.1627     C
C      0.34834  0.13639   0.8373     C
C      0.34834  0.86361   0.1627     C
C      0.34834  0.86361   0.8373     C
C       0.3484   0.0514   0.4579     C
C       0.3484   0.0514   0.5421     C
C       0.3484   0.9486   0.4579     C
C       0.3484   0.9486   0.5421     C
C      0.34971   0.1064  0.12447     C
C      0.34971   0.1064  0.87553     C
C      0.34971   0.8936  0.12447     C
C      0.34971   0.8936  0.87553     C
O      0.34991  0.04503  0.05011     O
O      0.34991  0.04503  0.94989     O
O      0.34991  0.95497  0.05011     O
O      0.34991  0.95497  0.94989     O
C       0.3509  0.19277   0.3194     C
C       0.3509  0.19277   0.6806     C
C       0.3509  0.80723   0.3194     C
C       0.3509  0.80723   0.6806     C
H       0.3536      0.5   0.2578     H
H       0.3536      0.5   0.7422     H
O      0.35437  0.41912  0.27206     O
O      0.35437  0.41912  0.72794     O
O      0.35437  0.58088  0.27206     O
O      0.35437  0.58088  0.72794     O
H       0.3546      0.0   0.3217     H
H       0.3546      0.0   0.6783     H
C      0.35671  0.27393  0.31677     C
C      0.35671  0.27393  0.68323     C
C      0.35671  0.72607  0.31677     C
C      0.35671  0.72607  0.68323     C
Cu       0.357      0.0      0.0    Cu
C      0.36361  0.15166   0.3373     C
C      0.36361  0.15166   0.6627     C
C      0.36361  0.84834   0.3373     C
C      0.36361  0.84834   0.6627     C
C       0.3657   0.0654      0.5     C
C       0.3657   0.9346      0.5     C
Cu     0.36624  0.36624  0.30999    Cu
Cu     0.36624  0.36624  0.69001    Cu
Cu     0.36624  0.63376  0.30999    Cu
Cu     0.36624  0.63376  0.69001    Cu
C      0.36743  0.23067  0.33928     C
C      0.36743  0.23067  0.66072     C
C      0.36743  0.76933  0.33928     C
C      0.36743  0.76933  0.66072     C
O      0.37061  0.30727  0.33729     O
O      0.37061  0.30727  0.66271     O
O      0.37061  0.69273  0.33729     O
O      0.37061  0.69273  0.66271     O
H       0.3771    0.097   0.1123     H
H       0.3771    0.097   0.8877     H
H       0.3771    0.903   0.1123     H
H       0.3771    0.903   0.8877     H
O      0.38378  0.31957  0.21313     O
O      0.38378  0.31957  0.78687     O
O      0.38378  0.68043  0.21313     O
O      0.38378  0.68043  0.78687     O
C      0.38763  0.15214   0.1839     C
C      0.38763  0.15214   0.8161     C
C      0.38763  0.84786   0.1839     C
C      0.38763  0.84786   0.8161     C
C       0.3936  0.15029  0.37553     C
C       0.3936  0.15029  0.62447     C
C       0.3936  0.84971  0.37553     C
C       0.3936  0.84971  0.62447     C
C      0.39643  0.22833  0.37747     C
C      0.39643  0.22833  0.62253     C
C      0.39643  0.77167  0.37747     C
C      0.39643  0.77167  0.62253     C
H        0.403   0.1229   0.3877     H
H        0.403   0.1229   0.6123     H
H        0.403   0.8771   0.3877     H
H        0.403   0.8771   0.6123     H
H       0.4074   0.2544   0.3914     H
H       0.4074   0.2544   0.6086     H
H       0.4074   0.7456   0.3914     H
H       0.4074   0.7456   0.6086     H
C      0.40945  0.18823  0.39542     C
C      0.40945  0.18823  0.60458     C
C      0.40945  0.81177  0.39542     C
C      0.40945  0.81177  0.60458     C
C      0.41802  0.33236   0.2339     C
C      0.41802  0.33236   0.7661     C
C      0.41802  0.66764   0.2339     C
C      0.41802  0.66764   0.7661     C
O      0.41912  0.35437  0.27206     O
O      0.41912  0.35437  0.72794     O
O      0.41912  0.64563  0.27206     O
O      0.41912  0.64563  0.72794     O
C       0.4205   0.1651   0.2028     C
C       0.4205   0.1651   0.7972     C
C       0.4205   0.8349   0.2028     C
C       0.4205   0.8349   0.7972     C
H        0.434    0.277   0.1637     H
H        0.434    0.277   0.8363     H
H        0.434    0.723   0.1637     H
H        0.434    0.723   0.8363     H
H       0.4344   0.2157   0.2779     H
H       0.4344   0.2157   0.7221     H
H       0.4344   0.7843   0.2779     H
H       0.4344   0.7843   0.7221     H
C       0.4346   0.1343      0.0     C
C       0.4346   0.8657      0.0     C
C      0.44183  0.18719  0.43542     C
C      0.44183  0.18719  0.56458     C
C      0.44183  0.81281  0.43542     C
C      0.44183  0.81281  0.56458     C
C       0.4486   0.1516   0.0421     C
C       0.4486   0.1516   0.9579     C
C       0.4486   0.8484   0.0421     C
C       0.4486   0.8484   0.9579     C
O      0.45497  0.15009  0.44989     O
O      0.45497  0.15009  0.55011     O
O      0.45497  0.84991  0.44989     O
O      0.45497  0.84991  0.55011     O
O       0.4556  0.22355  0.45079     O
O       0.4556  0.22355  0.54921     O
O       0.4556  0.77645  0.45079     O
O       0.4556  0.77645  0.54921     O
C      0.46014  0.17919   0.2237     C
C      0.46014  0.17919   0.7763     C
C      0.46014  0.82081   0.2237     C
C      0.46014  0.82081   0.7763     C
C      0.46049  0.31816  0.21292     C
C      0.46049  0.31816  0.78708     C
C      0.46049  0.68184  0.21292     C
C      0.46049  0.68184  0.78708     C
C      0.46094   0.2878  0.17588     C
C      0.46094   0.2878  0.82412     C
C      0.46094   0.7122  0.17588     C
C      0.46094   0.7122  0.82412     C
C        0.461    0.207   0.2634     C
C        0.461    0.207   0.7366     C
C        0.461    0.793   0.2634     C
C        0.461    0.793   0.7366     C
C       0.4778   0.1927   0.0432     C
C       0.4778   0.1927   0.9568     C
C       0.4778   0.8073   0.0432     C
C       0.4778   0.8073   0.9568     C
C       0.4848   0.2149   0.0865     C
C       0.4848   0.2149   0.9135     C
C       0.4848   0.7851   0.0865     C
C       0.4848   0.7851   0.9135     C
C       0.4874   0.2122      0.0     C
C       0.4874   0.7878      0.0     C
Cu         0.5    0.143      0.5    Cu
H          0.5   0.1454   0.1783     H
H          0.5   0.1454   0.8217     H
C          0.5   0.1651   0.2047     C
C          0.5   0.1651   0.7953     C
C          0.5    0.222   0.2818     C
C          0.5    0.222   0.7182     C
Cu         0.5   0.2298      0.5    Cu
C          0.5    0.242    0.119     C
C          0.5    0.242    0.881     C
H          0.5   0.2428   0.3071     H
H          0.5   0.2428   0.6929     H
C          0.5   0.2726   0.1561     C
C          0.5   0.2726   0.8439     C
C          0.5   0.3333   0.2321     C
C          0.5   0.3333   0.7679     C
H          0.5   0.3536   0.2578     H
H          0.5   0.3536   0.7422     H
H          0.5   0.6464   0.2578     H
H          0.5   0.6464   0.7422     H
C          0.5   0.6667   0.2321     C
C          0.5   0.6667   0.7679     C
C          0.5   0.7274   0.1561     C
C          0.5   0.7274   0.8439     C
H          0.5   0.7572   0.3071     H
H          0.5   0.7572   0.6929     H
C          0.5    0.758    0.119     C
C          0.5    0.758    0.881     C
Cu         0.5   0.7702      0.5    Cu
C          0.5    0.778   0.2818     C
C          0.5    0.778   0.7182     C
C          0.5   0.8349   0.2047     C
C          0.5   0.8349   0.7953     C
H          0.5   0.8546   0.1783     H
H          0.5   0.8546   0.8217     H
Cu         0.5    0.857      0.5    Cu
C       0.5126   0.2122      0.0     C
C       0.5126   0.7878      0.0     C
C       0.5152   0.2149   0.0865     C
C       0.5152   0.2149   0.9135     C
C       0.5152   0.7851   0.0865     C
C       0.5152   0.7851   0.9135     C
C       0.5222   0.1927   0.0432     C
C       0.5222   0.1927   0.9568     C
C       0.5222   0.8073   0.0432     C
C       0.5222   0.8073   0.9568     C
C        0.539    0.207   0.2634     C
C        0.539    0.207   0.7366     C
C        0.539    0.793   0.2634     C
C        0.539    0.793   0.7366     C
C      0.53906   0.2878  0.17588     C
C      0.53906   0.2878  0.82412     C
C      0.53906   0.7122  0.17588     C
C      0.53906   0.7122  0.82412     C
C      0.53951  0.31816  0.21292     C
C      0.53951  0.31816  0.78708     C
C      0.53951  0.68184  0.21292     C
C      0.53951  0.68184  0.78708     C
C      0.53986  0.17919   0.2237     C
C      0.53986  0.17919   0.7763     C
C      0.53986  0.82081   0.2237     C
C      0.53986  0.82081   0.7763     C
O       0.5444  0.22355  0.45079     O
O       0.5444  0.22355  0.54921     O
O       0.5444  0.77645  0.45079     O
O       0.5444  0.77645  0.54921     O
O      0.54503  0.15009  0.44989     O
O      0.54503  0.15009  0.55011     O
O      0.54503  0.84991  0.44989     O
O      0.54503  0.84991  0.55011     O
C       0.5514   0.1516   0.0421     C
C       0.5514   0.1516   0.9579     C
C       0.5514   0.8484   0.0421     C
C       0.5514   0.8484   0.9579     C
C      0.55817  0.18719  0.43542     C
C      0.55817  0.18719  0.56458     C
C      0.55817  0.81281  0.43542     C
C      0.55817  0.81281  0.56458     C
C       0.5654   0.1343      0.0     C
C       0.5654   0.8657      0.0     C
H       0.5656   0.2157   0.2779     H
H       0.5656   0.2157   0.7221     H
H       0.5656   0.7843   0.2779     H
H       0.5656   0.7843   0.7221     H
H        0.566    0.277   0.1637     H
H        0.566    0.277   0.8363     H
H        0.566    0.723   0.1637     H
H        0.566    0.723   0.8363     H
C       0.5795   0.1651   0.2028     C
C       0.5795   0.1651   0.7972     C
C       0.5795   0.8349   0.2028     C
C       0.5795   0.8349   0.7972     C
O      0.58088  0.35437  0.27206     O
O      0.58088  0.35437  0.72794     O
O      0.58088  0.64563  0.27206     O
O      0.58088  0.64563  0.72794     O
C      0.58198  0.33236   0.2339     C
C      0.58198  0.33236   0.7661     C
C      0.58198  0.66764   0.2339     C
C      0.58198  0.66764   0.7661     C
C      0.59055  0.18823  0.39542     C
C      0.59055  0.18823  0.60458     C
C      0.59055  0.81177  0.39542     C
C      0.59055  0.81177  0.60458     C
H       0.5926   0.2544   0.3914     H
H       0.5926   0.2544   0.6086     H
H       0.5926   0.7456   0.3914     H
H       0.5926   0.7456   0.6086     H
H        0.597   0.1229   0.3877     H
H        0.597   0.1229   0.6123     H
H        0.597   0.8771   0.3877     H
H        0.597   0.8771   0.6123     H
C      0.60357  0.22833  0.37747     C
C      0.60357  0.22833  0.62253     C
C      0.60357  0.77167  0.37747     C
C      0.60357  0.77167  0.62253     C
C       0.6064  0.15029  0.37553     C
C       0.6064  0.15029  0.62447     C
C       0.6064  0.84971  0.37553     C
C       0.6064  0.84971  0.62447     C
C      0.61237  0.15214   0.1839     C
C      0.61237  0.15214   0.8161     C
C      0.61237  0.84786   0.1839     C
C      0.61237  0.84786   0.8161     C
O      0.61622  0.31957  0.21313     O
O      0.61622  0.31957  0.78687     O
O      0.61622  0.68043  0.21313     O
O      0.61622  0.68043  0.78687     O
H       0.6229    0.097   0.1123     H
H       0.6229    0.097   0.8877     H
H       0.6229    0.903   0.1123     H
H       0.6229    0.903   0.8877     H
O      0.62939  0.30727  0.33729     O
O      0.62939  0.30727  0.66271     O
O      0.62939  0.69273  0.33729     O
O      0.62939  0.69273  0.66271     O
C      0.63257  0.23067  0.33928     C
C      0.63257  0.23067  0.66072     C
C      0.63257  0.76933  0.33928     C
C      0.63257  0.76933  0.66072     C
Cu     0.63376  0.36624  0.30999    Cu
Cu     0.63376  0.36624  0.69001    Cu
Cu     0.63376  0.63376  0.30999    Cu
Cu     0.63376  0.63376  0.69001    Cu
C       0.6343   0.0654      0.5     C
C       0.6343   0.9346      0.5     C
C      0.63639  0.15166   0.3373     C
C      0.63639  0.15166   0.6627     C
C      0.63639  0.84834   0.3373     C
C      0.63639  0.84834   0.6627     C
Cu       0.643      0.0      0.0    Cu
C      0.64329  0.27393  0.31677     C
C      0.64329  0.27393  0.68323     C
C      0.64329  0.72607  0.31677     C
C      0.64329  0.72607  0.68323     C
H       0.6454      0.0   0.3217     H
H       0.6454      0.0   0.6783     H
O      0.64563  0.41912  0.27206     O
O      0.64563  0.41912  0.72794     O
O      0.64563  0.58088  0.27206     O
O      0.64563  0.58088  0.72794     O
H       0.6464      0.5   0.2578     H
H       0.6464      0.5   0.7422     H
C       0.6491  0.19277   0.3194     C
C       0.6491  0.19277   0.6806     C
C       0.6491  0.80723   0.3194     C
C       0.6491  0.80723   0.6806     C
O      0.65009  0.04503  0.05011     O
O      0.65009  0.04503  0.94989     O
O      0.65009  0.95497  0.05011     O
O      0.65009  0.95497  0.94989     O
C      0.65029   0.1064  0.12447     C
C      0.65029   0.1064  0.87553     C
C      0.65029   0.8936  0.12447     C
C      0.65029   0.8936  0.87553     C
C       0.6516   0.0514   0.4579     C
C       0.6516   0.0514   0.5421     C
C       0.6516   0.9486   0.4579     C
C       0.6516   0.9486   0.5421     C
C      0.65166  0.13639   0.1627     C
C      0.65166  0.13639   0.8373     C
C      0.65166  0.86361   0.1627     C
C      0.65166  0.86361   0.8373     C
C      0.65214  0.11237   0.3161     C
C      0.65214  0.11237   0.6839     C
C      0.65214  0.88763   0.3161     C
C      0.65214  0.88763   0.6839     C
O      0.66376  0.27286  0.27744     O
O      0.66376  0.27286  0.72256     O
O      0.66376  0.72714  0.27744     O
O      0.66376  0.72714  0.72256     O
C       0.6651      0.0   0.2953     C
C       0.6651      0.0   0.7047     C
C       0.6651   0.0795   0.2972     C
C       0.6651   0.0795   0.7028     C
C       0.6651   0.9205   0.2972     C
C       0.6651   0.9205   0.7028     C
C       0.6667      0.5   0.2321     C
C       0.6667      0.5   0.7679     C
C      0.66764  0.41802   0.2339     C
C      0.66764  0.41802   0.7661     C
C      0.66764  0.58198   0.2339     C
C      0.66764  0.58198   0.7661     C
H       0.6692   0.1944   0.2935     H
H       0.6692   0.1944   0.7065     H
H       0.6692   0.8056   0.2935     H
H       0.6692   0.8056   0.7065     H
Cu     0.67514  0.32486   0.2394    Cu
Cu     0.67514  0.32486   0.7606    Cu
Cu     0.67514  0.67514   0.2394    Cu
Cu     0.67514  0.67514   0.7606    Cu
C      0.67919  0.03986   0.2763     C
C      0.67919  0.03986   0.7237     C
C      0.67919  0.96014   0.2763     C
C      0.67919  0.96014   0.7237     C
O      0.68043  0.38378  0.21313     O
O      0.68043  0.38378  0.78687     O
O      0.68043  0.61622  0.21313     O
O      0.68043  0.61622  0.78687     O
C      0.68184  0.46049  0.21292     C
C      0.68184  0.46049  0.78708     C
C      0.68184  0.53951  0.21292     C
C      0.68184  0.53951  0.78708     C
C      0.68719  0.05817  0.06458     C
C      0.68719  0.05817  0.93542     C
C      0.68719  0.94183  0.06458     C
C      0.68719  0.94183  0.93542     C
C      0.68823  0.09055  0.10458     C
C      0.68823  0.09055  0.89542     C
C      0.68823  0.90945  0.10458     C
C      0.68823  0.90945  0.89542     C
C       0.6927   0.0222   0.4568     C
C       0.6927   0.0222   0.5432     C
C       0.6927   0.9778   0.4568     C
C       0.6927   0.9778   0.5432     C
O      0.69273  0.37061  0.33729     O
O      0.69273  0.37061  0.66271     O
O      0.69273  0.62939  0.33729     O
O      0.69273  0.62939  0.66271     O
C      0.69277   0.1491   0.1806     C
C      0.69277   0.1491   0.8194     C
C      0.69277   0.8509   0.1806     C
C      0.69277   0.8509   0.8194     C
H       0.6944   0.1692   0.2065     H
H       0.6944   0.1692   0.7935     H
H       0.6944   0.8308   0.2065     H
H       0.6944   0.8308   0.7935     H
C        0.707    0.039   0.2366     C
C        0.707    0.039   0.7634     C
C        0.707    0.961   0.2366     C
C        0.707    0.961   0.7634     C
C       0.7122   0.0126      0.5     C
C       0.7122  0.46094  0.17588     C
C       0.7122  0.46094  0.82412     C
C       0.7122  0.53906  0.17588     C
C       0.7122  0.53906  0.82412     C
C       0.7122   0.9874      0.5     C
C       0.7149   0.0152   0.4135     C
C       0.7149   0.0152   0.5865     C
C       0.7149   0.9848   0.4135     C
C       0.7149   0.9848   0.5865     C
H       0.7157   0.0656   0.2221     H
H       0.7157   0.0656   0.7779     H
H       0.7157   0.9344   0.2221     H
H       0.7157   0.9344   0.7779     H
C        0.722      0.0   0.2182     C
C        0.722      0.0   0.7818     C
H        0.723    0.434   0.1637     H
H        0.723    0.434   0.8363     H
H        0.723    0.566   0.1637     H
H        0.723    0.566   0.8363     H
O      0.72355   0.0444  0.04921     O
O      0.72355   0.0444  0.95079     O
O      0.72355   0.9556  0.04921     O
O      0.72355   0.9556  0.95079     O
C      0.72607  0.35671  0.31677     C
C      0.72607  0.35671  0.68323     C
C      0.72607  0.64329  0.31677     C
C      0.72607  0.64329  0.68323     C
O      0.72714  0.33624  0.27744     O
O      0.72714  0.33624  0.72256     O
O      0.72714  0.66376  0.27744     O
O      0.72714  0.66376  0.72256     O
C       0.7274      0.5   0.1561     C
C       0.7274      0.5   0.8439     C
C      0.72833  0.10357  0.12253     C
C      0.72833  0.10357  0.87747     C
C      0.72833  0.89643  0.12253     C
C      0.72833  0.89643  0.87747     C
Cu      0.7298      0.0      0.0    Cu
C      0.73067  0.13257  0.16072     C
C      0.73067  0.13257  0.83928     C
C      0.73067  0.86743  0.16072     C
C      0.73067  0.86743  0.83928     C
C        0.742      0.0    0.381     C
C        0.742      0.0    0.619     C
H       0.7428      0.0   0.1929     H
H       0.7428      0.0   0.8071     H
H       0.7456   0.4074   0.3914     H
H       0.7456   0.4074   0.6086     H
H       0.7456   0.5926   0.3914     H
H       0.7456   0.5926   0.6086     H
H       0.7544   0.0926   0.1086     H
H       0.7544   0.0926   0.8914     H
H       0.7544   0.9074   0.1086     H
H       0.7544   0.9074   0.8914     H
H       0.7572      0.5   0.3071     H
H       0.7572      0.5   0.6929     H
C        0.758      0.5    0.119     C
C        0.758      0.5    0.881     C
C      0.76933  0.36743  0.33928     C
C      0.76933  0.36743  0.66072     C
C      0.76933  0.63257  0.33928     C
C      0.76933  0.63257  0.66072     C
Cu      0.7702      0.5      0.5    Cu
C      0.77167  0.39643  0.37747     C
C      0.77167  0.39643  0.62253     C
C      0.77167  0.60357  0.37747     C
C      0.77167  0.60357  0.62253     C
C       0.7726      0.0   0.3439     C
C       0.7726      0.0   0.6561     C
O      0.77286  0.16376  0.22256     O
O      0.77286  0.16376  0.77744     O
O      0.77286  0.83624  0.22256     O
O      0.77286  0.83624  0.77744     O
C      0.77393  0.14329  0.18323     C
C      0.77393  0.14329  0.81677     C
C      0.77393  0.85671  0.18323     C
C      0.77393  0.85671  0.81677     C
O      0.77645   0.4556  0.45079     O
O      0.77645   0.4556  0.54921     O
O      0.77645   0.5444  0.45079     O
O      0.77645   0.5444  0.54921     O
H        0.777    0.066   0.3363     H
H        0.777    0.066   0.6637     H
H        0.777    0.934   0.3363     H
H        0.777    0.934   0.6637     H
C        0.778      0.5   0.2818     C
C        0.778      0.5   0.7182     C
H       0.7843   0.4344   0.2779     H
H       0.7843   0.4344   0.7221     H
H       0.7843   0.5656   0.2779     H
H       0.7843   0.5656   0.7221     H
C       0.7851   0.4848   0.0865     C
C       0.7851   0.4848   0.9135     C
C       0.7851   0.5152   0.0865     C
C       0.7851   0.5152   0.9135     C
C       0.7878  0.03906  0.32412     C
C       0.7878  0.03906  0.67588     C
C       0.7878   0.4874      0.0     C
C       0.7878   0.5126      0.0     C
C       0.7878  0.96094  0.32412     C
C       0.7878  0.96094  0.67588     C
C        0.793    0.461   0.2634     C
C        0.793    0.461   0.7366     C
C        0.793    0.539   0.2634     C
C        0.793    0.539   0.7366     C
H       0.8056   0.3308   0.2935     H
H       0.8056   0.3308   0.7065     H
H       0.8056   0.6692   0.2935     H
H       0.8056   0.6692   0.7065     H
C      0.80723   0.3509   0.3194     C
C      0.80723   0.3509   0.6806     C
C      0.80723   0.6491   0.3194     C
C      0.80723   0.6491   0.6806     C
O      0.80727  0.12939  0.16271     O
O      0.80727  0.12939  0.83729     O
O      0.80727  0.87061  0.16271     O
O      0.80727  0.87061  0.83729     O
C       0.8073   0.4778   0.0432     C
C       0.8073   0.4778   0.9568     C
C       0.8073   0.5222   0.0432     C
C       0.8073   0.5222   0.9568     C
C      0.81177  0.40945  0.39542     C
C      0.81177  0.40945  0.60458     C
C      0.81177  0.59055  0.39542     C
C      0.81177  0.59055  0.60458     C
C      0.81281  0.44183  0.43542     C
C      0.81281  0.44183  0.56458     C
C      0.81281  0.55817  0.43542     C
C      0.81281  0.55817  0.56458     C
C      0.81816  0.03951  0.28708     C
C      0.81816  0.03951  0.71292     C
C      0.81816  0.96049  0.28708     C
C      0.81816  0.96049  0.71292     C
O      0.81957  0.11622  0.28687     O
O      0.81957  0.11622  0.71313     O
O      0.81957  0.88378  0.28687     O
O      0.81957  0.88378  0.71313     O
C      0.82081  0.46014   0.2237     C
C      0.82081  0.46014   0.7763     C
C      0.82081  0.53986   0.2237     C
C      0.82081  0.53986   0.7763     C
Cu     0.82486  0.17514   0.2606    Cu
Cu     0.82486  0.17514   0.7394    Cu
Cu     0.82486  0.82486   0.2606    Cu
Cu     0.82486  0.82486   0.7394    Cu
H       0.8308   0.3056   0.2065     H
H       0.8308   0.3056   0.7935     H
H       0.8308   0.6944   0.2065     H
H       0.8308   0.6944   0.7935     H
C      0.83236  0.08198   0.2661     C
C      0.83236  0.08198   0.7339     C
C      0.83236  0.91802   0.2661     C
C      0.83236  0.91802   0.7339     C
C       0.8333      0.0   0.2679     C
C       0.8333      0.0   0.7321     C
C       0.8349   0.4205   0.2028     C
C       0.8349   0.4205   0.7972     C
C       0.8349      0.5   0.2047     C
C       0.8349      0.5   0.7953     C
C       0.8349   0.5795   0.2028     C
C       0.8349   0.5795   0.7972     C
O      0.83624  0.22714  0.22256     O
O      0.83624  0.22714  0.77744     O
O      0.83624  0.77286  0.22256     O
O      0.83624  0.77286  0.77744     O
C      0.84786  0.38763   0.1839     C
C      0.84786  0.38763   0.8161     C
C      0.84786  0.61237   0.1839     C
C      0.84786  0.61237   0.8161     C
C      0.84834  0.36361   0.3373     C
C      0.84834  0.36361   0.6627     C
C      0.84834  0.63639   0.3373     C
C      0.84834  0.63639   0.6627     C
C       0.8484   0.4486   0.0421     C
C       0.8484   0.4486   0.9579     C
C       0.8484   0.5514   0.0421     C
C       0.8484   0.5514   0.9579     C
C      0.84971   0.3936  0.37553     C
C      0.84971   0.3936  0.62447     C
C      0.84971   0.6064  0.37553     C
C      0.84971   0.6064  0.62447     C
O      0.84991  0.45497  0.44989     O
O      0.84991  0.45497  0.55011     O
O      0.84991  0.54503  0.44989     O
O      0.84991  0.54503  0.55011     O
C       0.8509  0.30723   0.1806     C
C       0.8509  0.30723   0.8194     C
C       0.8509  0.69277   0.1806     C
C       0.8509  0.69277   0.8194     C
H       0.8536      0.0   0.2422     H
H       0.8536      0.0   0.7578     H
O      0.85437  0.08088  0.22794     O
O      0.85437  0.08088  0.77206     O
O      0.85437  0.91912  0.22794     O
O      0.85437  0.91912  0.77206     O
H       0.8546      0.5   0.1783     H
H       0.8546      0.5   0.8217     H
C      0.85671  0.22607  0.18323     C
C      0.85671  0.22607  0.81677     C
C      0.85671  0.77393  0.18323     C
C      0.85671  0.77393  0.81677     C
Cu       0.857      0.5      0.5    Cu
C      0.86361  0.34834   0.1627     C
C      0.86361  0.34834   0.8373     C
C      0.86361  0.65166   0.1627     C
C      0.86361  0.65166   0.8373     C
C       0.8657   0.4346      0.0     C
C       0.8657   0.5654      0.0     C
Cu     0.86624  0.13376  0.19001    Cu
Cu     0.86624  0.13376  0.80999    Cu
Cu     0.86624  0.86624  0.19001    Cu
Cu     0.86624  0.86624  0.80999    Cu
C      0.86743  0.26933  0.16072     C
C      0.86743  0.26933  0.83928     C
C      0.86743  0.73067  0.16072     C
C      0.86743  0.73067  0.83928     C
O      0.87061  0.19273  0.16271     O
O      0.87061  0.19273  0.83729     O
O      0.87061  0.80727  0.16271     O
O      0.87061  0.80727  0.83729     O
H       0.8771    0.403   0.3877     H
H       0.8771    0.403   0.6123     H
H       0.8771    0.597   0.3877     H
H       0.8771    0.597   0.6123     H
O      0.88378  0.18043  0.28687     O
O      0.88378  0.18043  0.71313     O
O      0.88378  0.81957  0.28687     O
O      0.88378  0.81957  0.71313     O
C      0.88763  0.34786   0.3161     C
C      0.88763  0.34786   0.6839     C
C      0.88763  0.65214   0.3161     C
C      0.88763  0.65214   0.6839     C
C       0.8936  0.34971  0.12447     C
C       0.8936  0.34971  0.87553     C
C       0.8936  0.65029  0.12447     C
C       0.8936  0.65029  0.87553     C
C      0.89643  0.27167  0.12253     C
C      0.89643  0.27167  0.87747     C
C      0.89643  0.72833  0.12253     C
C      0.89643  0.72833  0.87747     C
H        0.903   0.3771   0.1123     H
H        0.903   0.3771   0.8877     H
H        0.903   0.6229   0.1123     H
H        0.903   0.6229   0.8877     H
H       0.9074   0.2456   0.1086     H
H       0.9074   0.2456   0.8914     H
H       0.9074   0.7544   0.1086     H
H       0.9074   0.7544   0.8914     H
C      0.90945  0.31177  0.10458     C
C      0.90945  0.31177  0.89542     C
C      0.90945  0.68823  0.10458     C
C      0.90945  0.68823  0.89542     C
C      0.91802  0.16764   0.2661     C
C      0.91802  0.16764   0.7339     C
C      0.91802  0.83236   0.2661     C
C      0.91802  0.83236   0.7339     C
O      0.91912  0.14563  0.22794     O
O      0.91912  0.14563  0.77206     O
O      0.91912  0.85437  0.22794     O
O      0.91912  0.85437  0.77206     O
C       0.9205   0.3349   0.2972     C
C       0.9205   0.3349   0.7028     C
C       0.9205   0.6651   0.2972     C
C       0.9205   0.6651   0.7028     C
H        0.934    0.223   0.3363     H
H        0.934    0.223   0.6637     H
H        0.934    0.777   0.3363     H
H        0.934    0.777   0.6637     H
H       0.9344   0.2843   0.2221     H
H       0.9344   0.2843   0.7779     H
H       0.9344   0.7157   0.2221     H
H       0.9344   0.7157   0.7779     H
C       0.9346   0.3657      0.5     C
C       0.9346   0.6343      0.5     C
C      0.94183  0.31281  0.06458     C
C      0.94183  0.31281  0.93542     C
C      0.94183  0.68719  0.06458     C
C      0.94183  0.68719  0.93542     C
C       0.9486   0.3484   0.4579     C
C       0.9486   0.3484   0.5421     C
C       0.9486   0.6516   0.4579     C
C       0.9486   0.6516   0.5421     C
O      0.95497  0.34991  0.05011     O
O      0.95497  0.34991  0.94989     O
O      0.95497  0.65009  0.05011     O
O      0.95497  0.65009  0.94989     O
O       0.9556  0.27645  0.04921     O
O       0.9556  0.27645  0.95079     O
O       0.9556  0.72355  0.04921     O
O       0.9556  0.72355  0.95079     O
C      0.96014  0.32081   0.2763     C
C      0.96014  0.32081   0.7237     C
C      0.96014  0.67919   0.2763     C
C      0.96014  0.67919   0.7237     C
C      0.96049  0.18184  0.28708     C
C      0.96049  0.18184  0.71292     C
C      0.96049  0.81816  0.28708     C
C      0.96049  0.81816  0.71292     C
C      0.96094   0.2122  0.32412     C
C      0.96094   0.2122  0.67588     C
C      0.96094   0.7878  0.32412     C
C      0.96094   0.7878  0.67588     C
C        0.961    0.293   0.2366     C
C        0.961    0.293   0.7634     C
C        0.961    0.707   0.2366     C
C        0.961    0.707   0.7634     C
C       0.9778   0.3073   0.4568     C
C       0.9778   0.3073   0.5432     C
C       0.9778   0.6927   0.4568     C
C       0.9778   0.6927   0.5432     C
C       0.9848   0.2851   0.4135     C
C       0.9848   0.2851   0.5865     C
C       0.9848   0.7149   0.4135     C
C       0.9848   0.7149   0.5865     C
C       0.9874   0.2878      0.5     C
C       0.9874   0.7122      0.5     C
