data_I
_chemical_name_common  '/home/zhangsd/repos/MofS-CGCNN/ML/data/WS24/clean_cifs/IDIXAU'
_cell_length_a 20.16580
_cell_length_b 18.55180
_cell_length_c 12.15800
_cell_angle_alpha 90.00000
_cell_angle_beta  95.33100
_cell_angle_gamma 90.00000
_space_group_name_H-M_alt      'P 1'


loop_
_space_group_symop_operation_xyz
  'x, y, z' 

loop_
_atom_site_label
_atom_site_fract_x
_atom_site_fract_y
_atom_site_fract_z
_atom_site_type_symbol
Zn         0.0      0.0      0.0    Zn
Zn         0.0      0.0      0.5    Zn
Zn         0.0  0.07785     0.25    Zn
Zn         0.0  0.07877     0.75    Zn
Zn         0.0  0.92123     0.25    Zn
Zn         0.0  0.92215     0.75    Zn
O       0.0381   0.0007   0.6615     O
O       0.0381   0.9993   0.1615     O
O       0.0517      0.1   0.9921     O
O       0.0517      0.9   0.4921     O
O       0.0671   0.1385   0.3268     O
O       0.0671   0.8615   0.8268     O
O       0.0711   0.1353   0.8227     O
O       0.0711   0.8647   0.3227     O
H       0.0788     0.01    0.662     H
H       0.0788     0.99    0.162     H
C        0.085   0.1329    0.927     C
C        0.085   0.8671    0.427     C
O       0.0873   0.0556   0.4601     O
O       0.0873   0.9444   0.9601     O
C       0.0987    0.115   0.4135     C
C       0.0987    0.885   0.9135     C
H       0.1393   0.1479   0.1353     H
H       0.1393   0.8521   0.6353     H
C       0.1452   0.1745    0.971     C
C       0.1452   0.8255    0.471     C
H       0.1495   0.2367   0.3456     H
H       0.1495   0.7633   0.8456     H
C       0.1572   0.1587   0.4603     C
C       0.1572   0.8413   0.9603     C
C       0.1652   0.1732   0.0865     C
C       0.1652   0.8268   0.5865     C
H       0.1672   0.2141   0.8242     H
H       0.1672   0.7859   0.3242     H
C       0.1755   0.2206   0.4101     C
C       0.1755   0.7794   0.9101     C
C       0.1812   0.2131    0.901     C
C       0.1812   0.7869    0.401     C
H       0.1844   0.0924   0.5938     H
H       0.1844   0.9076   0.0938     H
C       0.1959   0.1355    0.558     C
C       0.1959   0.8645    0.058     C
C       0.2224   0.2089   0.1271     C
C       0.2224   0.7911   0.6271     C
H       0.2255   0.3409    0.334     H
H       0.2255   0.6591    0.834     H
C       0.2317   0.2614   0.4503     C
C       0.2317   0.7386   0.9503     C
H       0.2361   0.2067    0.204     H
H       0.2361   0.7933    0.704     H
C       0.2393   0.2517   0.9421     C
C       0.2393   0.7483   0.4421     C
C       0.2495   0.1751   0.6005     C
C       0.2495   0.8249   0.1005     C
C       0.2505   0.3249   0.3995     C
C       0.2505   0.6751   0.8995     C
C       0.2607   0.2483   0.0579     C
C       0.2607   0.7517   0.5579     C
H       0.2639   0.2933    0.796     H
H       0.2639   0.7067    0.296     H
C       0.2683   0.2386   0.5497     C
C       0.2683   0.7614   0.0497     C
H       0.2745   0.1591    0.666     H
H       0.2745   0.8409    0.166     H
C       0.2776   0.2911   0.8729     C
C       0.2776   0.7089   0.3729     C
C       0.3041   0.3645    0.442     C
C       0.3041   0.6355    0.942     C
H       0.3156   0.4076   0.4062     H
H       0.3156   0.5924   0.9062     H
C       0.3188   0.2869    0.099     C
C       0.3188   0.7131    0.599     C
C       0.3245   0.2794   0.5899     C
C       0.3245   0.7206   0.0899     C
H       0.3328   0.2859   0.1758     H
H       0.3328   0.7141   0.6758     H
C       0.3348   0.3268   0.9135     C
C       0.3348   0.6732   0.4135     C
C       0.3428   0.3413   0.5397     C
C       0.3428   0.6587   0.0397     C
H       0.3505   0.2633   0.6544     H
H       0.3505   0.7367   0.1544     H
C       0.3548   0.3255    0.029     C
C       0.3548   0.6745    0.529     C
H       0.3607   0.3521   0.8647     H
H       0.3607   0.6479   0.3647     H
C       0.4013    0.385   0.5865     C
C       0.4013    0.615   0.0865     C
O       0.4127   0.4444   0.5399     O
O       0.4127   0.5556   0.0399     O
C        0.415   0.3671    0.073     C
C        0.415   0.6329    0.573     C
H       0.4212     0.49    0.338     H
H       0.4212     0.51    0.838     H
O       0.4289   0.3647   0.1773     O
O       0.4289   0.6353   0.6773     O
O       0.4329   0.3615   0.6732     O
O       0.4329   0.6385   0.1732     O
O       0.4483      0.4   0.0079     O
O       0.4483      0.6   0.5079     O
O       0.4619   0.4993   0.3385     O
O       0.4619   0.5007   0.8385     O
Zn         0.5  0.42123     0.25    Zn
Zn         0.5  0.42215     0.75    Zn
Zn         0.5      0.5      0.0    Zn
Zn         0.5      0.5      0.5    Zn
Zn         0.5  0.57785     0.25    Zn
Zn         0.5  0.57877     0.75    Zn
O       0.5381   0.4993   0.1615     O
O       0.5381   0.5007   0.6615     O
O       0.5517      0.4   0.4921     O
O       0.5517      0.6   0.9921     O
O       0.5671   0.3615   0.8268     O
O       0.5671   0.6385   0.3268     O
O       0.5711   0.3647   0.3227     O
O       0.5711   0.6353   0.8227     O
H       0.5788     0.49    0.162     H
H       0.5788     0.51    0.662     H
C        0.585   0.3671    0.427     C
C        0.585   0.6329    0.927     C
O       0.5873   0.4444   0.9601     O
O       0.5873   0.5556   0.4601     O
C       0.5987    0.385   0.9135     C
C       0.5987    0.615   0.4135     C
H       0.6393   0.3521   0.6353     H
H       0.6393   0.6479   0.1353     H
C       0.6452   0.3255    0.471     C
C       0.6452   0.6745    0.971     C
H       0.6495   0.2633   0.8456     H
H       0.6495   0.7367   0.3456     H
C       0.6572   0.3413   0.9603     C
C       0.6572   0.6587   0.4603     C
C       0.6652   0.3268   0.5865     C
C       0.6652   0.6732   0.0865     C
H       0.6672   0.2859   0.3242     H
H       0.6672   0.7141   0.8242     H
C       0.6755   0.2794   0.9101     C
C       0.6755   0.7206   0.4101     C
C       0.6812   0.2869    0.401     C
C       0.6812   0.7131    0.901     C
H       0.6844   0.4076   0.0938     H
H       0.6844   0.5924   0.5938     H
C       0.6959   0.3645    0.058     C
C       0.6959   0.6355    0.558     C
C       0.7224   0.2911   0.6271     C
C       0.7224   0.7089   0.1271     C
H       0.7255   0.1591    0.834     H
H       0.7255   0.8409    0.334     H
C       0.7317   0.2386   0.9503     C
C       0.7317   0.7614   0.4503     C
H       0.7361   0.2933    0.704     H
H       0.7361   0.7067    0.204     H
C       0.7393   0.2483   0.4421     C
C       0.7393   0.7517   0.9421     C
C       0.7495   0.3249   0.1005     C
C       0.7495   0.6751   0.6005     C
C       0.7505   0.1751   0.8995     C
C       0.7505   0.8249   0.3995     C
C       0.7607   0.2517   0.5579     C
C       0.7607   0.7483   0.0579     C
H       0.7639   0.2067    0.296     H
H       0.7639   0.7933    0.796     H
C       0.7683   0.2614   0.0497     C
C       0.7683   0.7386   0.5497     C
H       0.7745   0.3409    0.166     H
H       0.7745   0.6591    0.666     H
C       0.7776   0.2089   0.3729     C
C       0.7776   0.7911   0.8729     C
C       0.8041   0.1355    0.942     C
C       0.8041   0.8645    0.442     C
H       0.8156   0.0924   0.9062     H
H       0.8156   0.9076   0.4062     H
C       0.8188   0.2131    0.599     C
C       0.8188   0.7869    0.099     C
C       0.8245   0.2206   0.0899     C
C       0.8245   0.7794   0.5899     C
H       0.8328   0.2141   0.6758     H
H       0.8328   0.7859   0.1758     H
C       0.8348   0.1732   0.4135     C
C       0.8348   0.8268   0.9135     C
C       0.8428   0.1587   0.0397     C
C       0.8428   0.8413   0.5397     C
H       0.8505   0.2367   0.1544     H
H       0.8505   0.7633   0.6544     H
C       0.8548   0.1745    0.529     C
C       0.8548   0.8255    0.029     C
H       0.8607   0.1479   0.3647     H
H       0.8607   0.8521   0.8647     H
C       0.9013    0.115   0.0865     C
C       0.9013    0.885   0.5865     C
O       0.9127   0.0556   0.0399     O
O       0.9127   0.9444   0.5399     O
C        0.915   0.1329    0.573     C
C        0.915   0.8671    0.073     C
H       0.9212     0.01    0.838     H
H       0.9212     0.99    0.338     H
O       0.9289   0.1353   0.6773     O
O       0.9289   0.8647   0.1773     O
O       0.9329   0.1385   0.1732     O
O       0.9329   0.8615   0.6732     O
O       0.9483      0.1   0.5079     O
O       0.9483      0.9   0.0079     O
O       0.9619   0.0007   0.8385     O
O       0.9619   0.9993   0.3385     O
