data_I
_chemical_name_common  '/home/zhangsd/repos/MofS-CGCNN/ML/data/WS24/clean_cifs/IRMOF-1-39'
_cell_length_a 25.86584
_cell_length_b 25.86584
_cell_length_c 25.86584
_cell_angle_alpha 90.00000
_cell_angle_beta  90.00000
_cell_angle_gamma 90.00000
_space_group_name_H-M_alt      'P 1'


loop_
_space_group_symop_operation_xyz
  'x, y, z' 

loop_
_atom_site_label
_atom_site_fract_x
_atom_site_fract_y
_atom_site_fract_z
_atom_site_type_symbol
C     0.026821 0.216833 0.216833     C
C     0.026821 0.216833 0.783167     C
C     0.026821 0.283167 0.283167     C
C     0.026821 0.283167 0.716833     C
C     0.026821 0.716833 0.283167     C
C     0.026821 0.716833 0.716833     C
C     0.026821 0.783167 0.216833     C
C     0.026821 0.783167 0.783167     C
H     0.02854750155395499 0.34198911562151807 0.6580108843784819     H
H     0.028547501553955017 0.15801088437848188 0.15801088437848188     H
H     0.048810000000000006  0.19131  0.80869     H
H     0.048810000000000006  0.30869  0.30869     H
H     0.048810000000000006  0.69131  0.30869     H
H     0.048810000000000006  0.80869  0.80869     H
C     0.053808     0.25     0.25     C
C     0.053808     0.25 0.7500000000000001     C
C     0.053808 0.7500000000000001     0.25     C
C     0.053808 0.7500000000000001 0.7500000000000001     C
C     0.055854892257318954 0.31929407201269927 0.6807059279873008     C
C     0.05585489225731897 0.18070592798730073 0.18070592798730073     C
H     0.08019005981000796 0.15451300006960222 0.20301184072628875     H
H     0.08019005981000799 0.20301184072628872 0.1545130000696022     H
H     0.08019005981000799 0.29698815927371114 0.6545130000696021     H
H     0.08019005981000799 0.3454869999303978 0.7030118407262886     H
C     0.111383     0.25     0.25     C
C     0.111383     0.25 0.7500000000000001     C
C     0.111383 0.7500000000000001     0.25     C
C     0.111383 0.7500000000000001 0.7500000000000001     C
O     0.133652 0.21895800000000004 0.21895800000000004     O
O     0.133652 0.21895800000000004 0.781042     O
O     0.133652 0.281042 0.281042     O
O     0.133652 0.281042 0.718958     O
O     0.133652 0.718958 0.281042     O
O     0.133652 0.718958 0.718958     O
O     0.133652 0.781042 0.21895800000000004     O
O     0.133652 0.781042 0.781042     O
H     0.15451300006960203 0.7030118407262885 0.5801900598100078     H
H     0.15451300006960209 0.08019005981000805 0.7969881592737112     H
H     0.15451300006960214 0.08019005981000801 0.20301184072628872     H
H     0.15451300006960217 0.5801900598100077 0.7030118407262885     H
H     0.15451300006960217 0.580190059810008 0.29698815927371164     H
H     0.15451300006960222 0.20301184072628875 0.08019005981000797     H
H     0.15801088437848182 0.028547501553955062 0.841989115621518     H
H     0.15801088437848188 0.028547501553955017 0.15801088437848188     H
H     0.15801088437848188 0.15801088437848188 0.028547501553955017     H
H     0.15801088437848193 0.5285475015539549 0.34198911562151807     H
H     0.15801088437848196 0.5285475015539549 0.6580108843784819     H
H     0.15801088437848196 0.6580108843784819 0.5285475015539549     H
C     0.1807059279873007 0.055854892257318996 0.8192940720126991     C
C     0.18070592798730073 0.05585489225731897 0.18070592798730073     C
C     0.18070592798730073 0.18070592798730073 0.05585489225731897     C
C     0.18070592798730073 0.5558548922573189 0.31929407201269927     C
C     0.18070592798730076 0.5558548922573189 0.6807059279873008     C
C     0.18070592798730076 0.6807059279873008 0.5558548922573189     C
H      0.19131  0.19131  0.95119     H
H      0.19131  0.30869  0.45119     H
H      0.19131  0.30869  0.54881     H
H      0.19131  0.45119  0.30869     H
H      0.19131  0.45119  0.69131     H
H      0.19131  0.69131  0.45119     H
H      0.19131  0.80869 0.048810000000000006     H
H      0.19131  0.80869  0.95119     H
H      0.19131  0.95119  0.19131     H
H      0.19131  0.95119  0.80869     H
H     0.20301184072628853 0.580190059810008 0.345486999930398     H
H     0.2030118407262886 0.08019005981000799 0.8454869999303978     H
H     0.20301184072628867 0.6545130000696021 0.5801900598100077     H
H     0.20301184072628872 0.1545130000696022 0.08019005981000801     H
H     0.20301184072628875 0.08019005981000796 0.15451300006960222     H
H     0.20301184072628875 0.5801900598100076 0.654513000069602     H
Zn    0.206633 0.206633 0.206633    Zn
Zn    0.206633 0.206633 0.793367    Zn
Zn    0.206633 0.293367 0.293367    Zn
Zn    0.206633 0.293367 0.7066330000000001    Zn
Zn    0.206633 0.7066330000000001 0.293367    Zn
Zn    0.206633 0.7066330000000001 0.7066330000000001    Zn
Zn    0.206633 0.793367 0.206633    Zn
Zn    0.206633 0.793367 0.793367    Zn
C     0.216833 0.026821 0.216833     C
C     0.216833 0.026821 0.783167     C
C     0.216833 0.216833 0.026821     C
C     0.216833 0.216833 0.973179     C
C     0.216833 0.283167 0.47317900000000007     C
C     0.216833 0.283167 0.526821     C
C     0.216833 0.47317900000000007 0.283167     C
C     0.216833 0.47317900000000007 0.716833     C
C     0.216833 0.526821 0.283167     C
C     0.216833 0.526821 0.716833     C
C     0.216833 0.716833 0.47317900000000007     C
C     0.216833 0.716833 0.526821     C
C     0.216833 0.783167 0.026821     C
C     0.216833 0.783167 0.973179     C
C     0.216833 0.973179 0.216833     C
C     0.216833 0.973179 0.783167     C
O     0.21895800000000004 0.133652 0.21895800000000004     O
O     0.21895800000000004 0.133652 0.781042     O
O     0.21895800000000004 0.21895800000000004 0.133652     O
O     0.21895800000000004 0.21895800000000004 0.866348     O
O     0.21895800000000004 0.281042 0.366348     O
O     0.21895800000000004 0.281042 0.633652     O
O     0.21895800000000004 0.366348 0.281042     O
O     0.21895800000000004 0.366348 0.718958     O
O     0.21895800000000004 0.633652 0.281042     O
O     0.21895800000000004 0.633652 0.718958     O
O     0.21895800000000004 0.718958 0.366348     O
O     0.21895800000000004 0.718958 0.633652     O
O     0.21895800000000004 0.781042 0.133652     O
O     0.21895800000000004 0.781042 0.866348     O
O     0.21895800000000004 0.866348 0.21895800000000004     O
O     0.21895800000000004 0.866348 0.781042     O
C         0.25 0.053808     0.25     C
C         0.25 0.053808 0.7500000000000001     C
C         0.25 0.111383     0.25     C
C         0.25 0.111383 0.7500000000000001     C
C         0.25     0.25 0.053808     C
C         0.25     0.25 0.111383     C
O         0.25     0.25     0.25     O
C         0.25     0.25 0.388617     C
C         0.25     0.25 0.446192     C
C         0.25     0.25 0.553808     C
C         0.25     0.25 0.611383     C
O         0.25     0.25 0.7500000000000001     O
C         0.25     0.25 0.888617     C
C         0.25     0.25 0.946192     C
C         0.25 0.388617     0.25     C
C         0.25 0.388617 0.7500000000000001     C
C         0.25 0.446192     0.25     C
C         0.25 0.446192 0.7500000000000001     C
C         0.25 0.553808     0.25     C
C         0.25 0.553808 0.7500000000000001     C
C         0.25 0.611383     0.25     C
C         0.25 0.611383 0.7500000000000001     C
C         0.25 0.7500000000000001 0.053808     C
C         0.25 0.7500000000000001 0.111383     C
O         0.25 0.7500000000000001     0.25     O
C         0.25 0.7500000000000001 0.388617     C
C         0.25 0.7500000000000001 0.446192     C
C         0.25 0.7500000000000001 0.553808     C
C         0.25 0.7500000000000001 0.611383     C
O         0.25 0.7500000000000001 0.7500000000000001     O
C         0.25 0.7500000000000001 0.888617     C
C         0.25 0.7500000000000001 0.946192     C
C         0.25 0.888617     0.25     C
C         0.25 0.888617 0.7500000000000001     C
C         0.25 0.946192     0.25     C
C         0.25 0.946192 0.7500000000000001     C
O     0.281042 0.133652 0.281042     O
O     0.281042 0.133652 0.718958     O
O     0.281042 0.21895800000000004 0.366348     O
O     0.281042 0.21895800000000004 0.633652     O
O     0.281042 0.281042 0.133652     O
O     0.281042 0.281042 0.866348     O
O     0.281042 0.366348 0.21895800000000004     O
O     0.281042 0.366348 0.781042     O
O     0.281042 0.633652 0.21895800000000004     O
O     0.281042 0.633652 0.781042     O
O     0.281042 0.718958 0.133652     O
O     0.281042 0.718958 0.866348     O
O     0.281042 0.781042 0.366348     O
O     0.281042 0.781042 0.633652     O
O     0.281042 0.866348 0.281042     O
O     0.281042 0.866348 0.718958     O
C     0.283167 0.026821 0.283167     C
C     0.283167 0.026821 0.716833     C
C     0.283167 0.216833 0.47317900000000007     C
C     0.283167 0.216833 0.526821     C
C     0.283167 0.283167 0.026821     C
C     0.283167 0.283167 0.973179     C
C     0.283167 0.47317900000000007 0.216833     C
C     0.283167 0.47317900000000007 0.783167     C
C     0.283167 0.526821 0.216833     C
C     0.283167 0.526821 0.783167     C
C     0.283167 0.716833 0.026821     C
C     0.283167 0.716833 0.973179     C
C     0.283167 0.783167 0.47317900000000007     C
C     0.283167 0.783167 0.526821     C
C     0.283167 0.973179 0.283167     C
C     0.283167 0.973179 0.716833     C
Zn    0.293367 0.206633 0.293367    Zn
Zn    0.293367 0.206633 0.7066330000000001    Zn
Zn    0.293367 0.293367 0.206633    Zn
Zn    0.293367 0.293367 0.793367    Zn
Zn    0.293367 0.7066330000000001 0.206633    Zn
Zn    0.293367 0.7066330000000001 0.793367    Zn
Zn    0.293367 0.793367 0.293367    Zn
Zn    0.293367 0.793367 0.7066330000000001    Zn
H     0.29698815927371114 0.6545130000696022 0.08019005981000799     H
H     0.2969881592737116 0.15451300006960214 0.580190059810008     H
H      0.30869 0.048810000000000006  0.30869     H
H      0.30869 0.048810000000000006  0.69131     H
H      0.30869  0.19131  0.45119     H
H      0.30869  0.30869 0.048810000000000006     H
H      0.30869  0.30869  0.95119     H
H      0.30869  0.45119  0.19131     H
H      0.30869  0.45119  0.80869     H
H      0.30869  0.54881  0.19131     H
H      0.30869  0.54881  0.80869     H
H      0.30869  0.69131  0.95119     H
H      0.30869  0.80869  0.45119     H
H      0.30869  0.80869  0.54881     H
H      0.30869  0.95119  0.30869     H
H      0.30869  0.95119  0.69131     H
C     0.31929407201269927 0.18070592798730073 0.5558548922573189     C
C     0.31929407201269927 0.6807059279873008 0.055854892257318954     C
H     0.34198911562151807 0.15801088437848193 0.5285475015539549     H
H     0.34198911562151807 0.6580108843784819 0.02854750155395499     H
H     0.3454869999303978 0.7030118407262886 0.08019005981000799     H
H     0.345486999930398 0.20301184072628853 0.580190059810008     H
O     0.366348 0.21895800000000004 0.281042     O
O     0.366348 0.21895800000000004 0.718958     O
O     0.366348 0.281042 0.21895800000000004     O
O     0.366348 0.281042 0.781042     O
O     0.366348 0.718958 0.21895800000000004     O
O     0.366348 0.718958 0.781042     O
O     0.366348 0.781042 0.281042     O
O     0.366348 0.781042 0.718958     O
C     0.388617     0.25     0.25     C
C     0.388617     0.25 0.7500000000000001     C
C     0.388617 0.7500000000000001     0.25     C
C     0.388617 0.7500000000000001 0.7500000000000001     C
C     0.446192     0.25     0.25     C
C     0.446192     0.25 0.7500000000000001     C
C     0.446192 0.7500000000000001     0.25     C
C     0.446192 0.7500000000000001 0.7500000000000001     C
H      0.45119  0.19131  0.30869     H
H      0.45119  0.19131  0.69131     H
H      0.45119  0.30869  0.19131     H
H      0.45119  0.30869  0.80869     H
H      0.45119  0.69131  0.19131     H
H      0.45119  0.69131  0.80869     H
H      0.45119  0.80869  0.30869     H
H      0.45119  0.80869  0.69131     H
C     0.47317900000000007 0.216833 0.283167     C
C     0.47317900000000007 0.216833 0.716833     C
C     0.47317900000000007 0.283167 0.216833     C
C     0.47317900000000007 0.283167 0.783167     C
C     0.47317900000000007 0.716833 0.216833     C
C     0.47317900000000007 0.716833 0.783167     C
C     0.47317900000000007 0.783167 0.283167     C
C     0.47317900000000007 0.783167 0.716833     C
C     0.526821 0.216833 0.283167     C
C     0.526821 0.216833 0.716833     C
C     0.526821 0.283167 0.216833     C
C     0.526821 0.283167 0.783167     C
C     0.526821 0.716833 0.216833     C
C     0.526821 0.716833 0.783167     C
C     0.526821 0.783167 0.283167     C
C     0.526821 0.783167 0.716833     C
H     0.5285475015539549 0.15801088437848196 0.6580108843784819     H
H     0.5285475015539549 0.34198911562151807 0.15801088437848193     H
H     0.5285475015539549 0.6580108843784819 0.15801088437848196     H
H     0.5285475015539549 0.841989115621518 0.6580108843784818     H
H      0.54881  0.19131  0.30869     H
H      0.54881  0.30869  0.80869     H
H      0.54881  0.69131  0.80869     H
H      0.54881  0.80869  0.30869     H
C     0.553808     0.25     0.25     C
C     0.553808     0.25 0.7500000000000001     C
C     0.553808 0.7500000000000001     0.25     C
C     0.553808 0.7500000000000001 0.7500000000000001     C
C     0.5558548922573189 0.18070592798730076 0.6807059279873008     C
C     0.5558548922573189 0.31929407201269927 0.18070592798730073     C
C     0.5558548922573189 0.6807059279873008 0.18070592798730076     C
C     0.5558548922573189 0.8192940720126991 0.6807059279873008     C
H     0.5801900598100076 0.654513000069602 0.20301184072628867     H
H     0.5801900598100077 0.20301184072628867 0.6545130000696021     H
H     0.5801900598100077 0.7030118407262885 0.15451300006960217     H
H     0.5801900598100078 0.15451300006960203 0.7030118407262885     H
H     0.5801900598100078 0.7969881592737111 0.654513000069602     H
H     0.580190059810008 0.29698815927371164 0.15451300006960217     H
H     0.580190059810008 0.345486999930398 0.20301184072628853     H
H     0.5801900598100082 0.8454869999303979 0.7030118407262888     H
C     0.611383     0.25     0.25     C
C     0.611383     0.25 0.7500000000000001     C
C     0.611383 0.7500000000000001     0.25     C
C     0.611383 0.7500000000000001 0.7500000000000001     C
O     0.633652 0.21895800000000004 0.281042     O
O     0.633652 0.21895800000000004 0.718958     O
O     0.633652 0.281042 0.21895800000000004     O
O     0.633652 0.281042 0.781042     O
O     0.633652 0.718958 0.21895800000000004     O
O     0.633652 0.718958 0.781042     O
O     0.633652 0.781042 0.281042     O
O     0.633652 0.781042 0.718958     O
H     0.654513000069602 0.20301184072628875 0.5801900598100076     H
H     0.654513000069602 0.5801900598100078 0.7969881592737111     H
H     0.6545130000696021 0.08019005981000799 0.29698815927371114     H
H     0.6545130000696021 0.5801900598100077 0.20301184072628867     H
H     0.6545130000696022 0.08019005981000799 0.7030118407262886     H
H     0.6545130000696022 0.7030118407262886 0.08019005981000792     H
H     0.6580108843784818 0.5285475015539549 0.841989115621518     H
H     0.6580108843784819 0.02854750155395496 0.6580108843784819     H
H     0.6580108843784819 0.02854750155395499 0.34198911562151807     H
H     0.6580108843784819 0.15801088437848196 0.5285475015539549     H
H     0.6580108843784819 0.5285475015539549 0.15801088437848196     H
H     0.6580108843784819 0.6580108843784819 0.02854750155395496     H
C     0.6807059279873008 0.05585489225731893 0.6807059279873008     C
C     0.6807059279873008 0.055854892257318954 0.31929407201269927     C
C     0.6807059279873008 0.18070592798730076 0.5558548922573189     C
C     0.6807059279873008 0.5558548922573189 0.18070592798730076     C
C     0.6807059279873008 0.5558548922573189 0.8192940720126991     C
C     0.6807059279873008 0.6807059279873008 0.05585489225731893     C
H      0.69131  0.19131  0.45119     H
H      0.69131  0.30869 0.048810000000000006     H
H      0.69131  0.30869  0.95119     H
H      0.69131  0.45119  0.19131     H
H      0.69131  0.45119  0.80869     H
H      0.69131  0.69131  0.95119     H
H      0.69131  0.80869  0.45119     H
H      0.69131  0.80869  0.54881     H
H      0.69131  0.95119  0.30869     H
H      0.69131  0.95119  0.69131     H
H     0.7030118407262885 0.15451300006960217 0.5801900598100077     H
H     0.7030118407262885 0.5801900598100078 0.15451300006960203     H
H     0.7030118407262886 0.08019005981000792 0.6545130000696022     H
H     0.7030118407262886 0.08019005981000799 0.3454869999303978     H
H     0.7030118407262886 0.5801900598100082 0.8454869999303979     H
H     0.7030118407262886 0.6545130000696022 0.08019005981000792     H
Zn    0.7066330000000001 0.206633 0.293367    Zn
Zn    0.7066330000000001 0.206633 0.7066330000000001    Zn
Zn    0.7066330000000001 0.293367 0.206633    Zn
Zn    0.7066330000000001 0.293367 0.793367    Zn
Zn    0.7066330000000001 0.7066330000000001 0.206633    Zn
Zn    0.7066330000000001 0.7066330000000001 0.793367    Zn
Zn    0.7066330000000001 0.793367 0.293367    Zn
Zn    0.7066330000000001 0.793367 0.7066330000000001    Zn
C     0.716833 0.026821 0.283167     C
C     0.716833 0.026821 0.716833     C
C     0.716833 0.216833 0.47317900000000007     C
C     0.716833 0.216833 0.526821     C
C     0.716833 0.283167 0.026821     C
C     0.716833 0.283167 0.973179     C
C     0.716833 0.47317900000000007 0.216833     C
C     0.716833 0.47317900000000007 0.783167     C
C     0.716833 0.526821 0.216833     C
C     0.716833 0.526821 0.783167     C
C     0.716833 0.716833 0.026821     C
C     0.716833 0.716833 0.973179     C
C     0.716833 0.783167 0.47317900000000007     C
C     0.716833 0.783167 0.526821     C
C     0.716833 0.973179 0.283167     C
C     0.716833 0.973179 0.716833     C
O     0.718958 0.133652 0.281042     O
O     0.718958 0.133652 0.718958     O
O     0.718958 0.21895800000000004 0.366348     O
O     0.718958 0.21895800000000004 0.633652     O
O     0.718958 0.281042 0.133652     O
O     0.718958 0.281042 0.866348     O
O     0.718958 0.366348 0.21895800000000004     O
O     0.718958 0.366348 0.781042     O
O     0.718958 0.633652 0.21895800000000004     O
O     0.718958 0.633652 0.781042     O
O     0.718958 0.718958 0.133652     O
O     0.718958 0.718958 0.866348     O
O     0.718958 0.781042 0.366348     O
O     0.718958 0.781042 0.633652     O
O     0.718958 0.866348 0.281042     O
O     0.718958 0.866348 0.718958     O
C     0.7500000000000001 0.053808     0.25     C
C     0.7500000000000001 0.053808 0.7500000000000001     C
C     0.7500000000000001 0.111383     0.25     C
C     0.7500000000000001 0.111383 0.7500000000000001     C
C     0.7500000000000001     0.25 0.053808     C
C     0.7500000000000001     0.25 0.111383     C
O     0.7500000000000001     0.25     0.25     O
C     0.7500000000000001     0.25 0.388617     C
C     0.7500000000000001     0.25 0.446192     C
C     0.7500000000000001     0.25 0.553808     C
C     0.7500000000000001     0.25 0.611383     C
O     0.7500000000000001     0.25 0.7500000000000001     O
C     0.7500000000000001     0.25 0.888617     C
C     0.7500000000000001     0.25 0.946192     C
C     0.7500000000000001 0.388617     0.25     C
C     0.7500000000000001 0.388617 0.7500000000000001     C
C     0.7500000000000001 0.446192     0.25     C
C     0.7500000000000001 0.446192 0.7500000000000001     C
C     0.7500000000000001 0.553808     0.25     C
C     0.7500000000000001 0.553808 0.7500000000000001     C
C     0.7500000000000001 0.611383     0.25     C
C     0.7500000000000001 0.611383 0.7500000000000001     C
C     0.7500000000000001 0.7500000000000001 0.053808     C
C     0.7500000000000001 0.7500000000000001 0.111383     C
O     0.7500000000000001 0.7500000000000001     0.25     O
C     0.7500000000000001 0.7500000000000001 0.388617     C
C     0.7500000000000001 0.7500000000000001 0.446192     C
C     0.7500000000000001 0.7500000000000001 0.553808     C
C     0.7500000000000001 0.7500000000000001 0.611383     C
O     0.7500000000000001 0.7500000000000001 0.7500000000000001     O
C     0.7500000000000001 0.7500000000000001 0.888617     C
C     0.7500000000000001 0.7500000000000001 0.946192     C
C     0.7500000000000001 0.888617     0.25     C
C     0.7500000000000001 0.888617 0.7500000000000001     C
C     0.7500000000000001 0.946192     0.25     C
C     0.7500000000000001 0.946192 0.7500000000000001     C
O     0.781042 0.133652 0.21895800000000004     O
O     0.781042 0.133652 0.781042     O
O     0.781042 0.21895800000000004 0.133652     O
O     0.781042 0.21895800000000004 0.866348     O
O     0.781042 0.281042 0.366348     O
O     0.781042 0.281042 0.633652     O
O     0.781042 0.366348 0.281042     O
O     0.781042 0.366348 0.718958     O
O     0.781042 0.633652 0.281042     O
O     0.781042 0.633652 0.718958     O
O     0.781042 0.718958 0.366348     O
O     0.781042 0.718958 0.633652     O
O     0.781042 0.781042 0.133652     O
O     0.781042 0.781042 0.866348     O
O     0.781042 0.866348 0.21895800000000004     O
O     0.781042 0.866348 0.781042     O
C     0.783167 0.026821 0.216833     C
C     0.783167 0.026821 0.783167     C
C     0.783167 0.216833 0.026821     C
C     0.783167 0.216833 0.973179     C
C     0.783167 0.283167 0.47317900000000007     C
C     0.783167 0.283167 0.526821     C
C     0.783167 0.47317900000000007 0.283167     C
C     0.783167 0.47317900000000007 0.716833     C
C     0.783167 0.526821 0.283167     C
C     0.783167 0.526821 0.716833     C
C     0.783167 0.716833 0.47317900000000007     C
C     0.783167 0.716833 0.526821     C
C     0.783167 0.783167 0.026821     C
C     0.783167 0.783167 0.973179     C
C     0.783167 0.973179 0.216833     C
C     0.783167 0.973179 0.783167     C
Zn    0.793367 0.206633 0.206633    Zn
Zn    0.793367 0.206633 0.793367    Zn
Zn    0.793367 0.293367 0.293367    Zn
Zn    0.793367 0.293367 0.7066330000000001    Zn
Zn    0.793367 0.7066330000000001 0.293367    Zn
Zn    0.793367 0.7066330000000001 0.7066330000000001    Zn
Zn    0.793367 0.793367 0.206633    Zn
Zn    0.793367 0.793367 0.793367    Zn
H     0.7969881592737111 0.654513000069602 0.5801900598100078     H
H     0.7969881592737112 0.15451300006960209 0.08019005981000805     H
H      0.80869 0.048810000000000006  0.19131     H
H      0.80869 0.048810000000000006  0.80869     H
H      0.80869  0.19131  0.95119     H
H      0.80869  0.30869  0.45119     H
H      0.80869  0.30869  0.54881     H
H      0.80869  0.45119  0.30869     H
H      0.80869  0.45119  0.69131     H
H      0.80869  0.54881  0.30869     H
H      0.80869  0.54881  0.69131     H
H      0.80869  0.69131  0.45119     H
H      0.80869  0.80869 0.048810000000000006     H
H      0.80869  0.80869  0.95119     H
H      0.80869  0.95119  0.19131     H
H      0.80869  0.95119  0.80869     H
C     0.8192940720126991 0.1807059279873007 0.055854892257318996     C
C     0.8192940720126991 0.6807059279873008 0.5558548922573189     C
H     0.841989115621518 0.15801088437848182 0.028547501553955062     H
H     0.841989115621518 0.6580108843784818 0.5285475015539549     H
H     0.8454869999303978 0.2030118407262886 0.08019005981000812     H
H     0.8454869999303979 0.7030118407262886 0.5801900598100082     H
O     0.866348 0.21895800000000004 0.21895800000000004     O
O     0.866348 0.21895800000000004 0.781042     O
O     0.866348 0.281042 0.281042     O
O     0.866348 0.281042 0.718958     O
O     0.866348 0.718958 0.281042     O
O     0.866348 0.718958 0.718958     O
O     0.866348 0.781042 0.21895800000000004     O
O     0.866348 0.781042 0.781042     O
C     0.888617     0.25     0.25     C
C     0.888617     0.25 0.7500000000000001     C
C     0.888617 0.7500000000000001     0.25     C
C     0.888617 0.7500000000000001 0.7500000000000001     C
C     0.946192     0.25     0.25     C
C     0.946192     0.25 0.7500000000000001     C
C     0.946192 0.7500000000000001     0.25     C
C     0.946192 0.7500000000000001 0.7500000000000001     C
H      0.95119  0.19131  0.19131     H
H      0.95119  0.19131  0.80869     H
H      0.95119  0.30869  0.30869     H
H      0.95119  0.30869  0.69131     H
H      0.95119  0.69131  0.30869     H
H      0.95119  0.69131  0.69131     H
H      0.95119  0.80869  0.19131     H
H      0.95119  0.80869  0.80869     H
C     0.973179 0.216833 0.216833     C
C     0.973179 0.216833 0.783167     C
C     0.973179 0.283167 0.283167     C
C     0.973179 0.283167 0.716833     C
C     0.973179 0.716833 0.283167     C
C     0.973179 0.716833 0.716833     C
C     0.973179 0.783167 0.216833     C
C     0.973179 0.783167 0.783167     C
H     1.0285475015539547 0.6580108843784819 0.6580108843784819     H
H     1.028547501553955 0.8419891156215181 0.15801088437848182     H
C     1.0558548922573188 0.6807059279873008 0.6807059279873008     C
C     1.0558548922573188 0.8192940720126993 0.18070592798730065     C
H     1.0801900598100076 0.6545130000696022 0.7030118407262885     H
H     1.0801900598100076 0.7030118407262882 0.6545130000696021     H
H     1.0801900598100078 0.7969881592737112 0.15451300006960156     H
H     1.080190059810008 0.8454869999303979 0.20301184072628833     H
