data_I
_chemical_name_common  '/home/zhangsd/repos/MofS-CGCNN/ML/data/WS24/clean_cifs/IZENIM'
_cell_length_a 22.45300
_cell_length_b 22.45300
_cell_length_c 22.45300
_cell_angle_alpha 90.00000
_cell_angle_beta  90.00000
_cell_angle_gamma 90.00000
_space_group_name_H-M_alt      'P 1'


loop_
_space_group_symop_operation_xyz
  'x, y, z' 

loop_
_atom_site_label
_atom_site_fract_x
_atom_site_fract_y
_atom_site_fract_z
_atom_site_type_symbol
H       0.0095   0.2413   0.2805     H
H       0.0095   0.7587   0.7195     H
C       0.0112   0.1994   0.2861     C
C       0.0112   0.8006   0.7139     C
N       0.0138   0.3042   0.0229     N
N       0.0138   0.6958   0.9771     N
C       0.0163   0.0774    0.301     C
C       0.0163   0.9226    0.699     C
N       0.0229   0.0138   0.3042     N
N       0.0229   0.9862   0.6958     N
C       0.0388   0.1047    0.705     C
C       0.0388   0.8953    0.295     C
C       0.0412   0.1662   0.7134     C
C       0.0412   0.8338   0.2866     C
C       0.0652   0.1718   0.2936     C
C       0.0652   0.8282   0.7064     C
C        0.068   0.1098   0.3019     C
C        0.068   0.8902   0.6981     C
H       0.0743   0.0819   0.7033     H
H       0.0743   0.9181   0.2967     H
C       0.0774    0.301   0.0163     C
C       0.0774    0.699   0.9837     C
H       0.0819   0.2967   0.9257     H
H       0.0819   0.7033   0.0743     H
H       0.0907   0.3081   0.1052     H
H       0.0907   0.6919   0.8948     H
Br     0.09838  0.39179   0.7632    Br
Br     0.09838  0.60821   0.2368    Br
C        0.101   0.1951   0.7202     C
C        0.101   0.8049   0.2798     C
O      0.10304   0.2478   0.7386     O
O      0.10304   0.7522   0.2614     O
C       0.1047    0.295   0.9612     C
C       0.1047    0.705   0.0388     C
H       0.1052   0.0907   0.3081     H
H       0.1052   0.9093   0.6919     H
Br     0.10821  0.40162   0.2632    Br
Br     0.10821  0.59838   0.7368    Br
C       0.1098   0.3019    0.068     C
C       0.1098   0.6981    0.932     C
O       0.1214   0.2592   0.2802     O
O       0.1214   0.7408   0.7198     O
C       0.1231   0.2052   0.2946     C
C       0.1231   0.7948   0.7054     C
O       0.1457   0.1627   0.7065     O
O       0.1457   0.8373   0.2935     O
O       0.1627   0.2935   0.8543     O
O       0.1627   0.7065   0.1457     O
C       0.1662   0.2866   0.9588     C
C       0.1662   0.7134   0.0412     C
O       0.1677   0.1758   0.3106     O
O       0.1677   0.8242   0.6894     O
C       0.1718   0.2936   0.0652     C
C       0.1718   0.7064   0.9348     C
O       0.1758   0.3106   0.1677     O
O       0.1758   0.6894   0.8323     O
In      0.1777  0.30633  0.76084    In
In      0.1777  0.69367  0.23916    In
O       0.1894   0.3242   0.6677     O
O       0.1894   0.6758   0.3323     O
H       0.1919   0.4093   0.6052     H
H       0.1919   0.5907   0.3948     H
In     0.19367   0.3223  0.26084    In
In     0.19367   0.6777  0.73916    In
C       0.1951   0.2798    0.899     C
C       0.1951   0.7202    0.101     C
N       0.1958   0.4862   0.5229     N
N       0.1958   0.5138   0.4771     N
C       0.1981   0.3902    0.568     C
C       0.1981   0.6098    0.432     C
C        0.199   0.4226   0.5163     C
C        0.199   0.5774   0.4837     C
C       0.1994   0.2861   0.0112     C
C       0.1994   0.7139   0.9888     C
H       0.2033   0.4181   0.4257     H
H       0.2033   0.5819   0.5743     H
C        0.205   0.3953   0.4612     C
C        0.205   0.6047   0.5388     C
C       0.2052   0.2946   0.1231     C
C       0.2052   0.7054   0.8769     C
C       0.2054   0.2948   0.6231     C
C       0.2054   0.7052   0.3769     C
C       0.2064   0.3282   0.5652     C
C       0.2064   0.6718   0.4348     C
O       0.2065   0.3373   0.3543     O
O       0.2065   0.6627   0.6457     O
C       0.2134   0.3338   0.4588     C
C       0.2134   0.6662   0.5412     C
C       0.2139   0.3006   0.5112     C
C       0.2139   0.6994   0.4888     C
H       0.2195   0.2587   0.5095     H
H       0.2195   0.7413   0.4905     H
O       0.2198   0.2408   0.6214     O
O       0.2198   0.7592   0.3786     O
C       0.2202   0.3049    0.399     C
C       0.2202   0.6951    0.601     C
O        0.236    0.112   0.6284     O
O        0.236    0.888   0.3716     O
O       0.2386   0.2522  0.39696     O
O       0.2386   0.7478  0.60304     O
In     0.23916   0.1777  0.69367    In
In     0.23916   0.8223  0.30633    In
O       0.2404   0.2404   0.7596     O
O       0.2404   0.7596   0.2404     O
O       0.2408   0.3786   0.7802     O
O       0.2408   0.6214   0.2198     O
H       0.2413   0.2805   0.0095     H
H       0.2413   0.7195   0.9905     H
O       0.2478   0.2614  0.89696     O
O       0.2478   0.7386  0.10304     O
O       0.2522  0.39696   0.2386     O
O       0.2522  0.60304   0.7614     O
H       0.2587   0.4905   0.7805     H
H       0.2587   0.5095   0.2195     H
O       0.2592   0.2802   0.1214     O
O       0.2592   0.7198   0.8786     O
O       0.2596   0.2596   0.2596     O
O       0.2596   0.7404   0.7404     O
In     0.26084  0.19367   0.3223    In
In     0.26084  0.80633   0.6777    In
O       0.2614  0.10304   0.7522     O
O       0.2614  0.89696   0.2478     O
Br      0.2632  0.10821  0.40162    Br
Br      0.2632  0.89179  0.59838    Br
C       0.2798    0.101   0.8049     C
C       0.2798    0.899   0.1951     C
O       0.2802   0.1214   0.2592     O
O       0.2802   0.8786   0.7408     O
H       0.2805   0.0095   0.2413     H
H       0.2805   0.9905   0.7587     H
C       0.2861   0.0112   0.1994     C
C       0.2861   0.9888   0.8006     C
C       0.2866   0.0412   0.8338     C
C       0.2866   0.9588   0.1662     C
O       0.2935   0.1457   0.8373     O
O       0.2935   0.8543   0.1627     O
C       0.2936   0.0652   0.1718     C
C       0.2936   0.9348   0.8282     C
C       0.2946   0.1231   0.2052     C
C       0.2946   0.8769   0.7948     C
C       0.2948   0.3769   0.7946     C
C       0.2948   0.6231   0.2054     C
C        0.295   0.0388   0.8953     C
C        0.295   0.9612   0.1047     C
H       0.2967   0.0743   0.9181     H
H       0.2967   0.9257   0.0819     H
C       0.3006   0.4888   0.7861     C
C       0.3006   0.5112   0.2139     C
C        0.301   0.0163   0.0774     C
C        0.301   0.9837   0.9226     C
C       0.3019    0.068   0.1098     C
C       0.3019    0.932   0.8902     C
N       0.3042   0.0229   0.0138     N
N       0.3042   0.9771   0.9862     N
C       0.3049    0.399   0.2202     C
C       0.3049    0.601   0.7798     C
In     0.30633  0.23916   0.8223    In
In     0.30633  0.76084   0.1777    In
H       0.3081   0.1052   0.0907     H
H       0.3081   0.8948   0.9093     H
O       0.3106   0.1677   0.1758     O
O       0.3106   0.8323   0.8242     O
In      0.3223  0.26084  0.19367    In
In      0.3223  0.73916  0.80633    In
O       0.3242   0.3323   0.8106     O
O       0.3242   0.6677   0.1894     O
C       0.3282   0.4348   0.7936     C
C       0.3282   0.5652   0.2064     C
O       0.3323   0.1894   0.6758     O
O       0.3323   0.8106   0.3242     O
C       0.3338   0.4588   0.2134     C
C       0.3338   0.5412   0.7866     C
O       0.3373   0.3543   0.2065     O
O       0.3373   0.6457   0.7935     O
O       0.3543   0.2065   0.3373     O
O       0.3543   0.7935   0.6627     O
O       0.3716    0.236    0.888     O
O       0.3716    0.764    0.112     O
C       0.3769   0.2054   0.7052     C
C       0.3769   0.7946   0.2948     C
O       0.3786   0.2198   0.7592     O
O       0.3786   0.7802   0.2408     O
O        0.388    0.264   0.1284     O
O        0.388    0.736   0.8716     O
C       0.3902    0.432   0.8019     C
C       0.3902    0.568   0.1981     C
H       0.3948   0.1919   0.5907     H
H       0.3948   0.8081   0.4093     H
C       0.3953   0.4612    0.205     C
C       0.3953   0.5388    0.795     C
O      0.39696   0.2386   0.2522     O
O      0.39696   0.7614   0.7478     O
C        0.399   0.2202   0.3049     C
C        0.399   0.7798   0.6951     C
H       0.4093   0.3948   0.8081     H
H       0.4093   0.6052   0.1919     H
H       0.4181   0.4257   0.2033     H
H       0.4181   0.5743   0.7967     H
C       0.4226   0.4837    0.801     C
C       0.4226   0.5163    0.199     C
H       0.4257   0.2033   0.4181     H
H       0.4257   0.7967   0.5819     H
C        0.432   0.1981   0.6098     C
C        0.432   0.8019   0.3902     C
C       0.4348   0.2064   0.6718     C
C       0.4348   0.7936   0.3282     C
C       0.4588   0.2134   0.3338     C
C       0.4588   0.7866   0.6662     C
C       0.4612    0.205   0.3953     C
C       0.4612    0.795   0.6047     C
N       0.4771   0.1958   0.5138     N
N       0.4771   0.8042   0.4862     N
C       0.4837    0.199   0.5774     C
C       0.4837    0.801   0.4226     C
N       0.4862   0.4771   0.8042     N
N       0.4862   0.5229   0.1958     N
C       0.4888   0.2139   0.6994     C
C       0.4888   0.7861   0.3006     C
H       0.4905   0.2195   0.7413     H
H       0.4905   0.7805   0.2587     H
H       0.5095   0.2195   0.2587     H
H       0.5095   0.7805   0.7413     H
C       0.5112   0.2139   0.3006     C
C       0.5112   0.7861   0.6994     C
N       0.5138   0.4771   0.1958     N
N       0.5138   0.5229   0.8042     N
C       0.5163    0.199   0.4226     C
C       0.5163    0.801   0.5774     C
N       0.5229   0.1958   0.4862     N
N       0.5229   0.8042   0.5138     N
C       0.5388    0.205   0.6047     C
C       0.5388    0.795   0.3953     C
C       0.5412   0.2134   0.6662     C
C       0.5412   0.7866   0.3338     C
C       0.5652   0.2064   0.3282     C
C       0.5652   0.7936   0.6718     C
C        0.568   0.1981   0.3902     C
C        0.568   0.8019   0.6098     C
H       0.5743   0.2033   0.5819     H
H       0.5743   0.7967   0.4181     H
C       0.5774   0.4837    0.199     C
C       0.5774   0.5163    0.801     C
H       0.5819   0.4257   0.7967     H
H       0.5819   0.5743   0.2033     H
H       0.5907   0.3948   0.1919     H
H       0.5907   0.6052   0.8081     H
Br     0.59838   0.2632  0.89179    Br
Br     0.59838   0.7368  0.10821    Br
C        0.601   0.2202   0.6951     C
C        0.601   0.7798   0.3049     C
O      0.60304   0.2386   0.7478     O
O      0.60304   0.7614   0.2522     O
C       0.6047   0.4612    0.795     C
C       0.6047   0.5388    0.205     C
H       0.6052   0.1919   0.4093     H
H       0.6052   0.8081   0.5907     H
Br     0.60821   0.2368  0.09838    Br
Br     0.60821   0.7632  0.90162    Br
C       0.6098    0.432   0.1981     C
C       0.6098    0.568   0.8019     C
O       0.6214   0.2198   0.2408     O
O       0.6214   0.7802   0.7592     O
C       0.6231   0.2054   0.2948     C
C       0.6231   0.7946   0.7052     C
O       0.6457   0.2065   0.6627     O
O       0.6457   0.7935   0.3373     O
O       0.6627   0.3543   0.7935     O
O       0.6627   0.6457   0.2065     O
C       0.6662   0.4588   0.7866     C
C       0.6662   0.5412   0.2134     C
O       0.6677   0.1894   0.3242     O
O       0.6677   0.8106   0.6758     O
C       0.6718   0.4348   0.2064     C
C       0.6718   0.5652   0.7936     C
O       0.6758   0.3323   0.1894     O
O       0.6758   0.6677   0.8106     O
In      0.6777  0.26084  0.80633    In
In      0.6777  0.73916  0.19367    In
O       0.6894   0.1677   0.8242     O
O       0.6894   0.8323   0.1758     O
H       0.6919   0.1052   0.9093     H
H       0.6919   0.8948   0.0907     H
In     0.69367  0.23916   0.1777    In
In     0.69367  0.76084   0.8223    In
C       0.6951    0.399   0.7798     C
C       0.6951    0.601   0.2202     C
N       0.6958   0.0229   0.9862     N
N       0.6958   0.9771   0.0138     N
C       0.6981    0.068   0.8902     C
C       0.6981    0.932   0.1098     C
C        0.699   0.0163   0.9226     C
C        0.699   0.9837   0.0774     C
C       0.6994   0.4888   0.2139     C
C       0.6994   0.5112   0.7861     C
H       0.7033   0.0743   0.0819     H
H       0.7033   0.9257   0.9181     H
C        0.705   0.0388   0.1047     C
C        0.705   0.9612   0.8953     C
C       0.7052   0.3769   0.2054     C
C       0.7052   0.6231   0.7946     C
C       0.7054   0.1231   0.7948     C
C       0.7054   0.8769   0.2052     C
C       0.7064   0.0652   0.8282     C
C       0.7064   0.9348   0.1718     C
O       0.7065   0.1457   0.1627     O
O       0.7065   0.8543   0.8373     O
C       0.7134   0.0412   0.1662     C
C       0.7134   0.9588   0.8338     C
C       0.7139   0.0112   0.8006     C
C       0.7139   0.9888   0.1994     C
H       0.7195   0.0095   0.7587     H
H       0.7195   0.9905   0.2413     H
O       0.7198   0.1214   0.7408     O
O       0.7198   0.8786   0.2592     O
C       0.7202    0.101   0.1951     C
C       0.7202    0.899   0.8049     C
O        0.736   0.1284    0.612     O
O        0.736   0.8716    0.388     O
O       0.7386  0.10304   0.2478     O
O       0.7386  0.89696   0.7522     O
In     0.73916  0.19367   0.6777    In
In     0.73916  0.80633   0.3223    In
O       0.7404   0.2596   0.7404     O
O       0.7404   0.7404   0.2596     O
O       0.7408   0.2802   0.8786     O
O       0.7408   0.7198   0.1214     O
H       0.7413   0.4905   0.2195     H
H       0.7413   0.5095   0.7805     H
O       0.7478  0.39696   0.7614     O
O       0.7478  0.60304   0.2386     O
O       0.7522   0.2614  0.10304     O
O       0.7522   0.7386  0.89696     O
H       0.7587   0.2805   0.9905     H
H       0.7587   0.7195   0.0095     H
O       0.7592   0.3786   0.2198     O
O       0.7592   0.6214   0.7802     O
O       0.7596   0.2404   0.2404     O
O       0.7596   0.7596   0.7596     O
In     0.76084   0.1777  0.30633    In
In     0.76084   0.8223  0.69367    In
O       0.7614   0.2522  0.60304     O
O       0.7614   0.7478  0.39696     O
Br      0.7632  0.09838  0.39179    Br
Br      0.7632  0.90162  0.60821    Br
C       0.7798   0.3049    0.601     C
C       0.7798   0.6951    0.399     C
O       0.7802   0.2408   0.3786     O
O       0.7802   0.7592   0.6214     O
H       0.7805   0.2587   0.4905     H
H       0.7805   0.7413   0.5095     H
C       0.7861   0.3006   0.4888     C
C       0.7861   0.6994   0.5112     C
C       0.7866   0.3338   0.5412     C
C       0.7866   0.6662   0.4588     C
O       0.7935   0.3373   0.6457     O
O       0.7935   0.6627   0.3543     O
C       0.7936   0.3282   0.4348     C
C       0.7936   0.6718   0.5652     C
C       0.7946   0.2948   0.3769     C
C       0.7946   0.7052   0.6231     C
C       0.7948   0.2946   0.8769     C
C       0.7948   0.7054   0.1231     C
C        0.795   0.3953   0.5388     C
C        0.795   0.6047   0.4612     C
H       0.7967   0.4181   0.5743     H
H       0.7967   0.5819   0.4257     H
C       0.8006   0.2861   0.9888     C
C       0.8006   0.7139   0.0112     C
C        0.801   0.4226   0.4837     C
C        0.801   0.5774   0.5163     C
C       0.8019   0.3902    0.432     C
C       0.8019   0.6098    0.568     C
N       0.8042   0.4862   0.4771     N
N       0.8042   0.5138   0.5229     N
C       0.8049   0.2798    0.101     C
C       0.8049   0.7202    0.899     C
In     0.80633   0.3223  0.73916    In
In     0.80633   0.6777  0.26084    In
H       0.8081   0.4093   0.3948     H
H       0.8081   0.5907   0.6052     H
O       0.8106   0.3242   0.3323     O
O       0.8106   0.6758   0.6677     O
In      0.8223  0.30633  0.23916    In
In      0.8223  0.69367  0.76084    In
O       0.8242   0.3106   0.8323     O
O       0.8242   0.6894   0.1677     O
C       0.8282   0.2936   0.9348     C
C       0.8282   0.7064   0.0652     C
O       0.8323   0.1758   0.6894     O
O       0.8323   0.8242   0.3106     O
C       0.8338   0.2866   0.0412     C
C       0.8338   0.7134   0.9588     C
O       0.8373   0.2935   0.1457     O
O       0.8373   0.7065   0.8543     O
O       0.8543   0.1627   0.2935     O
O       0.8543   0.8373   0.7065     O
O       0.8716    0.388    0.736     O
O       0.8716    0.612    0.264     O
C       0.8769   0.2052   0.7054     C
C       0.8769   0.7948   0.2946     C
O       0.8786   0.2592   0.7198     O
O       0.8786   0.7408   0.2802     O
O        0.888   0.3716    0.236     O
O        0.888   0.6284    0.764     O
C       0.8902   0.3019    0.932     C
C       0.8902   0.6981    0.068     C
H       0.8948   0.0907   0.6919     H
H       0.8948   0.9093   0.3081     H
C       0.8953    0.295   0.0388     C
C       0.8953    0.705   0.9612     C
O      0.89696   0.2478   0.2614     O
O      0.89696   0.7522   0.7386     O
C        0.899   0.1951   0.2798     C
C        0.899   0.8049   0.7202     C
H       0.9093   0.3081   0.8948     H
H       0.9093   0.6919   0.1052     H
H       0.9181   0.2967   0.0743     H
H       0.9181   0.7033   0.9257     H
C       0.9226    0.301   0.9837     C
C       0.9226    0.699   0.0163     C
H       0.9257   0.0819   0.2967     H
H       0.9257   0.9181   0.7033     H
C        0.932   0.1098   0.6981     C
C        0.932   0.8902   0.3019     C
C       0.9348   0.1718   0.7064     C
C       0.9348   0.8282   0.2936     C
C       0.9588   0.1662   0.2866     C
C       0.9588   0.8338   0.7134     C
C       0.9612   0.1047    0.295     C
C       0.9612   0.8953    0.705     C
N       0.9771   0.0138   0.6958     N
N       0.9771   0.9862   0.3042     N
C       0.9837   0.0774    0.699     C
C       0.9837   0.9226    0.301     C
N       0.9862   0.3042   0.9771     N
N       0.9862   0.6958   0.0229     N
C       0.9888   0.1994   0.7139     C
C       0.9888   0.8006   0.2861     C
H       0.9905   0.2413   0.7195     H
H       0.9905   0.7587   0.2805     H
