data_I
_chemical_name_common  '/home/zhangsd/repos/MofS-CGCNN/ML/data/WS24/clean_cifs/JALLIU'
_cell_length_a 27.31950
_cell_length_b 27.31950
_cell_length_c 27.31950
_cell_angle_alpha 90.00000
_cell_angle_beta  90.00000
_cell_angle_gamma 90.00000
_space_group_name_H-M_alt      'P 1'


loop_
_space_group_symop_operation_xyz
  'x, y, z' 

loop_
_atom_site_label
_atom_site_fract_x
_atom_site_fract_y
_atom_site_fract_z
_atom_site_type_symbol
Ce         0.0      0.0  0.09749    Ce
Ce         0.0      0.0  0.90251    Ce
O          0.0  0.07817  0.13658     O
O          0.0  0.07817  0.86342     O
Ce         0.0  0.09749      0.0    Ce
C          0.0  0.12146  0.12146     C
C          0.0  0.12146  0.87854     C
O          0.0  0.13658  0.07817     O
O          0.0  0.13658  0.92183     O
C          0.0  0.14516   0.2085     C
C          0.0  0.14516   0.7915     C
C          0.0  0.16037  0.16037     C
C          0.0  0.16037  0.83963     C
C          0.0  0.18194  0.24452     C
C          0.0  0.18194  0.75548     C
C          0.0   0.2085  0.14516     C
C          0.0   0.2085  0.85484     C
C          0.0  0.23007  0.23007     C
C          0.0  0.23007  0.76993     C
N          0.0  0.24452  0.18194     N
N          0.0  0.24452  0.81806     N
N          0.0  0.25548  0.31806     N
N          0.0  0.25548  0.68194     N
C          0.0  0.26993  0.26993     C
C          0.0  0.26993  0.73007     C
C          0.0   0.2915  0.35484     C
C          0.0   0.2915  0.64516     C
C          0.0  0.31806  0.25548     C
C          0.0  0.31806  0.74452     C
C          0.0  0.33963  0.33963     C
C          0.0  0.33963  0.66037     C
C          0.0  0.35484   0.2915     C
C          0.0  0.35484   0.7085     C
O          0.0  0.36342  0.42183     O
O          0.0  0.36342  0.57817     O
C          0.0  0.37854  0.37854     C
C          0.0  0.37854  0.62146     C
Ce         0.0  0.40251      0.5    Ce
O          0.0  0.42183  0.36342     O
O          0.0  0.42183  0.63658     O
Ce         0.0      0.5  0.40251    Ce
Ce         0.0      0.5  0.59749    Ce
O          0.0  0.57817  0.36342     O
O          0.0  0.57817  0.63658     O
Ce         0.0  0.59749      0.5    Ce
C          0.0  0.62146  0.37854     C
C          0.0  0.62146  0.62146     C
O          0.0  0.63658  0.42183     O
O          0.0  0.63658  0.57817     O
C          0.0  0.64516   0.2915     C
C          0.0  0.64516   0.7085     C
C          0.0  0.66037  0.33963     C
C          0.0  0.66037  0.66037     C
C          0.0  0.68194  0.25548     C
C          0.0  0.68194  0.74452     C
C          0.0   0.7085  0.35484     C
C          0.0   0.7085  0.64516     C
C          0.0  0.73007  0.26993     C
C          0.0  0.73007  0.73007     C
N          0.0  0.74452  0.31806     N
N          0.0  0.74452  0.68194     N
N          0.0  0.75548  0.18194     N
N          0.0  0.75548  0.81806     N
C          0.0  0.76993  0.23007     C
C          0.0  0.76993  0.76993     C
C          0.0   0.7915  0.14516     C
C          0.0   0.7915  0.85484     C
C          0.0  0.81806  0.24452     C
C          0.0  0.81806  0.75548     C
C          0.0  0.83963  0.16037     C
C          0.0  0.83963  0.83963     C
C          0.0  0.85484   0.2085     C
C          0.0  0.85484   0.7915     C
O          0.0  0.86342  0.07817     O
O          0.0  0.86342  0.92183     O
C          0.0  0.87854  0.12146     C
C          0.0  0.87854  0.87854     C
Ce         0.0  0.90251      0.0    Ce
O          0.0  0.92183  0.13658     O
O          0.0  0.92183  0.86342     O
O      0.04912  0.04912  0.04912     O
O      0.04912  0.04912  0.95088     O
O      0.04912  0.45088  0.45088     O
O      0.04912  0.45088  0.54912     O
O      0.04912  0.54912  0.45088     O
O      0.04912  0.54912  0.54912     O
O      0.04912  0.95088  0.04912     O
O      0.04912  0.95088  0.95088     O
O      0.07817      0.0  0.13658     O
O      0.07817      0.0  0.86342     O
O      0.07817  0.13658      0.0     O
O      0.07817  0.36342      0.5     O
O      0.07817      0.5  0.36342     O
O      0.07817      0.5  0.63658     O
O      0.07817  0.63658      0.5     O
O      0.07817  0.86342      0.0     O
Ce     0.09749      0.0      0.0    Ce
Ce     0.09749      0.5      0.5    Ce
C      0.12146      0.0  0.12146     C
C      0.12146      0.0  0.87854     C
C      0.12146  0.12146      0.0     C
C      0.12146  0.37854      0.5     C
C      0.12146      0.5  0.37854     C
C      0.12146      0.5  0.62146     C
C      0.12146  0.62146      0.5     C
C      0.12146  0.87854      0.0     C
O      0.13658      0.0  0.07817     O
O      0.13658      0.0  0.92183     O
O      0.13658  0.07817      0.0     O
O      0.13658  0.42183      0.5     O
O      0.13658      0.5  0.42183     O
O      0.13658      0.5  0.57817     O
O      0.13658  0.57817      0.5     O
O      0.13658  0.92183      0.0     O
C      0.14516      0.0   0.2085     C
C      0.14516      0.0   0.7915     C
C      0.14516   0.2085      0.0     C
C      0.14516   0.2915      0.5     C
C      0.14516      0.5   0.2915     C
C      0.14516      0.5   0.7085     C
C      0.14516   0.7085      0.5     C
C      0.14516   0.7915      0.0     C
C      0.16037      0.0  0.16037     C
C      0.16037      0.0  0.83963     C
C      0.16037  0.16037      0.0     C
C      0.16037  0.33963      0.5     C
C      0.16037      0.5  0.33963     C
C      0.16037      0.5  0.66037     C
C      0.16037  0.66037      0.5     C
C      0.16037  0.83963      0.0     C
N      0.18194      0.0  0.24452     N
N      0.18194      0.0  0.75548     N
C      0.18194  0.24452      0.0     C
C      0.18194  0.25548      0.5     C
N      0.18194      0.5  0.25548     N
N      0.18194      0.5  0.74452     N
C      0.18194  0.74452      0.5     C
C      0.18194  0.75548      0.0     C
C       0.2085      0.0  0.14516     C
C       0.2085      0.0  0.85484     C
C       0.2085  0.14516      0.0     C
C       0.2085  0.35484      0.5     C
C       0.2085      0.5  0.35484     C
C       0.2085      0.5  0.64516     C
C       0.2085  0.64516      0.5     C
C       0.2085  0.85484      0.0     C
C      0.23007      0.0  0.23007     C
C      0.23007      0.0  0.76993     C
C      0.23007  0.23007      0.0     C
C      0.23007  0.26993      0.5     C
C      0.23007      0.5  0.26993     C
C      0.23007      0.5  0.73007     C
C      0.23007  0.73007      0.5     C
C      0.23007  0.76993      0.0     C
C      0.24452      0.0  0.18194     C
C      0.24452      0.0  0.81806     C
N      0.24452  0.18194      0.0     N
N      0.24452  0.31806      0.5     N
C      0.24452      0.5  0.31806     C
C      0.24452      0.5  0.68194     C
N      0.24452  0.68194      0.5     N
N      0.24452  0.81806      0.0     N
C      0.25548      0.0  0.31806     C
C      0.25548      0.0  0.68194     C
N      0.25548  0.18194      0.5     N
N      0.25548  0.31806      0.0     N
C      0.25548      0.5  0.18194     C
C      0.25548      0.5  0.81806     C
N      0.25548  0.68194      0.0     N
N      0.25548  0.81806      0.5     N
C      0.26993      0.0  0.26993     C
C      0.26993      0.0  0.73007     C
C      0.26993  0.23007      0.5     C
C      0.26993  0.26993      0.0     C
C      0.26993      0.5  0.23007     C
C      0.26993      0.5  0.76993     C
C      0.26993  0.73007      0.0     C
C      0.26993  0.76993      0.5     C
C       0.2915      0.0  0.35484     C
C       0.2915      0.0  0.64516     C
C       0.2915  0.14516      0.5     C
C       0.2915  0.35484      0.0     C
C       0.2915      0.5  0.14516     C
C       0.2915      0.5  0.85484     C
C       0.2915  0.64516      0.0     C
C       0.2915  0.85484      0.5     C
N      0.31806      0.0  0.25548     N
N      0.31806      0.0  0.74452     N
C      0.31806  0.24452      0.5     C
C      0.31806  0.25548      0.0     C
N      0.31806      0.5  0.24452     N
N      0.31806      0.5  0.75548     N
C      0.31806  0.74452      0.0     C
C      0.31806  0.75548      0.5     C
C      0.33963      0.0  0.33963     C
C      0.33963      0.0  0.66037     C
C      0.33963  0.16037      0.5     C
C      0.33963  0.33963      0.0     C
C      0.33963      0.5  0.16037     C
C      0.33963      0.5  0.83963     C
C      0.33963  0.66037      0.0     C
C      0.33963  0.83963      0.5     C
C      0.35484      0.0   0.2915     C
C      0.35484      0.0   0.7085     C
C      0.35484   0.2085      0.5     C
C      0.35484   0.2915      0.0     C
C      0.35484      0.5   0.2085     C
C      0.35484      0.5   0.7915     C
C      0.35484   0.7085      0.0     C
C      0.35484   0.7915      0.5     C
O      0.36342      0.0  0.42183     O
O      0.36342      0.0  0.57817     O
O      0.36342  0.07817      0.5     O
O      0.36342  0.42183      0.0     O
O      0.36342      0.5  0.07817     O
O      0.36342      0.5  0.92183     O
O      0.36342  0.57817      0.0     O
O      0.36342  0.92183      0.5     O
C      0.37854      0.0  0.37854     C
C      0.37854      0.0  0.62146     C
C      0.37854  0.12146      0.5     C
C      0.37854  0.37854      0.0     C
C      0.37854      0.5  0.12146     C
C      0.37854      0.5  0.87854     C
C      0.37854  0.62146      0.0     C
C      0.37854  0.87854      0.5     C
Ce     0.40251      0.0      0.5    Ce
Ce     0.40251      0.5      0.0    Ce
O      0.42183      0.0  0.36342     O
O      0.42183      0.0  0.63658     O
O      0.42183  0.13658      0.5     O
O      0.42183  0.36342      0.0     O
O      0.42183      0.5  0.13658     O
O      0.42183      0.5  0.86342     O
O      0.42183  0.63658      0.0     O
O      0.42183  0.86342      0.5     O
O      0.45088  0.04912  0.45088     O
O      0.45088  0.04912  0.54912     O
O      0.45088  0.45088  0.04912     O
O      0.45088  0.45088  0.95088     O
O      0.45088  0.54912  0.04912     O
O      0.45088  0.54912  0.95088     O
O      0.45088  0.95088  0.45088     O
O      0.45088  0.95088  0.54912     O
Ce         0.5      0.0  0.40251    Ce
Ce         0.5      0.0  0.59749    Ce
O          0.5  0.07817  0.36342     O
O          0.5  0.07817  0.63658     O
Ce         0.5  0.09749      0.5    Ce
C          0.5  0.12146  0.37854     C
C          0.5  0.12146  0.62146     C
O          0.5  0.13658  0.42183     O
O          0.5  0.13658  0.57817     O
C          0.5  0.14516   0.2915     C
C          0.5  0.14516   0.7085     C
C          0.5  0.16037  0.33963     C
C          0.5  0.16037  0.66037     C
C          0.5  0.18194  0.25548     C
C          0.5  0.18194  0.74452     C
C          0.5   0.2085  0.35484     C
C          0.5   0.2085  0.64516     C
C          0.5  0.23007  0.26993     C
C          0.5  0.23007  0.73007     C
N          0.5  0.24452  0.31806     N
N          0.5  0.24452  0.68194     N
N          0.5  0.25548  0.18194     N
N          0.5  0.25548  0.81806     N
C          0.5  0.26993  0.23007     C
C          0.5  0.26993  0.76993     C
C          0.5   0.2915  0.14516     C
C          0.5   0.2915  0.85484     C
C          0.5  0.31806  0.24452     C
C          0.5  0.31806  0.75548     C
C          0.5  0.33963  0.16037     C
C          0.5  0.33963  0.83963     C
C          0.5  0.35484   0.2085     C
C          0.5  0.35484   0.7915     C
O          0.5  0.36342  0.07817     O
O          0.5  0.36342  0.92183     O
C          0.5  0.37854  0.12146     C
C          0.5  0.37854  0.87854     C
Ce         0.5  0.40251      0.0    Ce
O          0.5  0.42183  0.13658     O
O          0.5  0.42183  0.86342     O
Ce         0.5      0.5  0.09749    Ce
Ce         0.5      0.5  0.90251    Ce
O          0.5  0.57817  0.13658     O
O          0.5  0.57817  0.86342     O
Ce         0.5  0.59749      0.0    Ce
C          0.5  0.62146  0.12146     C
C          0.5  0.62146  0.87854     C
O          0.5  0.63658  0.07817     O
O          0.5  0.63658  0.92183     O
C          0.5  0.64516   0.2085     C
C          0.5  0.64516   0.7915     C
C          0.5  0.66037  0.16037     C
C          0.5  0.66037  0.83963     C
C          0.5  0.68194  0.24452     C
C          0.5  0.68194  0.75548     C
C          0.5   0.7085  0.14516     C
C          0.5   0.7085  0.85484     C
C          0.5  0.73007  0.23007     C
C          0.5  0.73007  0.76993     C
N          0.5  0.74452  0.18194     N
N          0.5  0.74452  0.81806     N
N          0.5  0.75548  0.31806     N
N          0.5  0.75548  0.68194     N
C          0.5  0.76993  0.26993     C
C          0.5  0.76993  0.73007     C
C          0.5   0.7915  0.35484     C
C          0.5   0.7915  0.64516     C
C          0.5  0.81806  0.25548     C
C          0.5  0.81806  0.74452     C
C          0.5  0.83963  0.33963     C
C          0.5  0.83963  0.66037     C
C          0.5  0.85484   0.2915     C
C          0.5  0.85484   0.7085     C
O          0.5  0.86342  0.42183     O
O          0.5  0.86342  0.57817     O
C          0.5  0.87854  0.37854     C
C          0.5  0.87854  0.62146     C
Ce         0.5  0.90251      0.5    Ce
O          0.5  0.92183  0.36342     O
O          0.5  0.92183  0.63658     O
O      0.54912  0.04912  0.45088     O
O      0.54912  0.04912  0.54912     O
O      0.54912  0.45088  0.04912     O
O      0.54912  0.45088  0.95088     O
O      0.54912  0.54912  0.04912     O
O      0.54912  0.54912  0.95088     O
O      0.54912  0.95088  0.45088     O
O      0.54912  0.95088  0.54912     O
O      0.57817      0.0  0.36342     O
O      0.57817      0.0  0.63658     O
O      0.57817  0.13658      0.5     O
O      0.57817  0.36342      0.0     O
O      0.57817      0.5  0.13658     O
O      0.57817      0.5  0.86342     O
O      0.57817  0.63658      0.0     O
O      0.57817  0.86342      0.5     O
Ce     0.59749      0.0      0.5    Ce
Ce     0.59749      0.5      0.0    Ce
C      0.62146      0.0  0.37854     C
C      0.62146      0.0  0.62146     C
C      0.62146  0.12146      0.5     C
C      0.62146  0.37854      0.0     C
C      0.62146      0.5  0.12146     C
C      0.62146      0.5  0.87854     C
C      0.62146  0.62146      0.0     C
C      0.62146  0.87854      0.5     C
O      0.63658      0.0  0.42183     O
O      0.63658      0.0  0.57817     O
O      0.63658  0.07817      0.5     O
O      0.63658  0.42183      0.0     O
O      0.63658      0.5  0.07817     O
O      0.63658      0.5  0.92183     O
O      0.63658  0.57817      0.0     O
O      0.63658  0.92183      0.5     O
C      0.64516      0.0   0.2915     C
C      0.64516      0.0   0.7085     C
C      0.64516   0.2085      0.5     C
C      0.64516   0.2915      0.0     C
C      0.64516      0.5   0.2085     C
C      0.64516      0.5   0.7915     C
C      0.64516   0.7085      0.0     C
C      0.64516   0.7915      0.5     C
C      0.66037      0.0  0.33963     C
C      0.66037      0.0  0.66037     C
C      0.66037  0.16037      0.5     C
C      0.66037  0.33963      0.0     C
C      0.66037      0.5  0.16037     C
C      0.66037      0.5  0.83963     C
C      0.66037  0.66037      0.0     C
C      0.66037  0.83963      0.5     C
N      0.68194      0.0  0.25548     N
N      0.68194      0.0  0.74452     N
C      0.68194  0.24452      0.5     C
C      0.68194  0.25548      0.0     C
N      0.68194      0.5  0.24452     N
N      0.68194      0.5  0.75548     N
C      0.68194  0.74452      0.0     C
C      0.68194  0.75548      0.5     C
C       0.7085      0.0  0.35484     C
C       0.7085      0.0  0.64516     C
C       0.7085  0.14516      0.5     C
C       0.7085  0.35484      0.0     C
C       0.7085      0.5  0.14516     C
C       0.7085      0.5  0.85484     C
C       0.7085  0.64516      0.0     C
C       0.7085  0.85484      0.5     C
C      0.73007      0.0  0.26993     C
C      0.73007      0.0  0.73007     C
C      0.73007  0.23007      0.5     C
C      0.73007  0.26993      0.0     C
C      0.73007      0.5  0.23007     C
C      0.73007      0.5  0.76993     C
C      0.73007  0.73007      0.0     C
C      0.73007  0.76993      0.5     C
C      0.74452      0.0  0.31806     C
C      0.74452      0.0  0.68194     C
N      0.74452  0.18194      0.5     N
N      0.74452  0.31806      0.0     N
C      0.74452      0.5  0.18194     C
C      0.74452      0.5  0.81806     C
N      0.74452  0.68194      0.0     N
N      0.74452  0.81806      0.5     N
C      0.75548      0.0  0.18194     C
C      0.75548      0.0  0.81806     C
N      0.75548  0.18194      0.0     N
N      0.75548  0.31806      0.5     N
C      0.75548      0.5  0.31806     C
C      0.75548      0.5  0.68194     C
N      0.75548  0.68194      0.5     N
N      0.75548  0.81806      0.0     N
C      0.76993      0.0  0.23007     C
C      0.76993      0.0  0.76993     C
C      0.76993  0.23007      0.0     C
C      0.76993  0.26993      0.5     C
C      0.76993      0.5  0.26993     C
C      0.76993      0.5  0.73007     C
C      0.76993  0.73007      0.5     C
C      0.76993  0.76993      0.0     C
C       0.7915      0.0  0.14516     C
C       0.7915      0.0  0.85484     C
C       0.7915  0.14516      0.0     C
C       0.7915  0.35484      0.5     C
C       0.7915      0.5  0.35484     C
C       0.7915      0.5  0.64516     C
C       0.7915  0.64516      0.5     C
C       0.7915  0.85484      0.0     C
N      0.81806      0.0  0.24452     N
N      0.81806      0.0  0.75548     N
C      0.81806  0.24452      0.0     C
C      0.81806  0.25548      0.5     C
N      0.81806      0.5  0.25548     N
N      0.81806      0.5  0.74452     N
C      0.81806  0.74452      0.5     C
C      0.81806  0.75548      0.0     C
C      0.83963      0.0  0.16037     C
C      0.83963      0.0  0.83963     C
C      0.83963  0.16037      0.0     C
C      0.83963  0.33963      0.5     C
C      0.83963      0.5  0.33963     C
C      0.83963      0.5  0.66037     C
C      0.83963  0.66037      0.5     C
C      0.83963  0.83963      0.0     C
C      0.85484      0.0   0.2085     C
C      0.85484      0.0   0.7915     C
C      0.85484   0.2085      0.0     C
C      0.85484   0.2915      0.5     C
C      0.85484      0.5   0.2915     C
C      0.85484      0.5   0.7085     C
C      0.85484   0.7085      0.5     C
C      0.85484   0.7915      0.0     C
O      0.86342      0.0  0.07817     O
O      0.86342      0.0  0.92183     O
O      0.86342  0.07817      0.0     O
O      0.86342  0.42183      0.5     O
O      0.86342      0.5  0.42183     O
O      0.86342      0.5  0.57817     O
O      0.86342  0.57817      0.5     O
O      0.86342  0.92183      0.0     O
C      0.87854      0.0  0.12146     C
C      0.87854      0.0  0.87854     C
C      0.87854  0.12146      0.0     C
C      0.87854  0.37854      0.5     C
C      0.87854      0.5  0.37854     C
C      0.87854      0.5  0.62146     C
C      0.87854  0.62146      0.5     C
C      0.87854  0.87854      0.0     C
Ce     0.90251      0.0      0.0    Ce
Ce     0.90251      0.5      0.5    Ce
O      0.92183      0.0  0.13658     O
O      0.92183      0.0  0.86342     O
O      0.92183  0.13658      0.0     O
O      0.92183  0.36342      0.5     O
O      0.92183      0.5  0.36342     O
O      0.92183      0.5  0.63658     O
O      0.92183  0.63658      0.5     O
O      0.92183  0.86342      0.0     O
O      0.95088  0.04912  0.04912     O
O      0.95088  0.04912  0.95088     O
O      0.95088  0.45088  0.45088     O
O      0.95088  0.45088  0.54912     O
O      0.95088  0.54912  0.45088     O
O      0.95088  0.54912  0.54912     O
O      0.95088  0.95088  0.04912     O
O      0.95088  0.95088  0.95088     O
