data_I
_chemical_name_common  '/home/zhangsd/repos/MofS-CGCNN/ML/data/WS24/clean_cifs/JALLEQ'
_cell_length_a 39.91940
_cell_length_b 39.91940
_cell_length_c 39.91940
_cell_angle_alpha 90.00000
_cell_angle_beta  90.00000
_cell_angle_gamma 90.00000
_space_group_name_H-M_alt      'P 1'


loop_
_space_group_symop_operation_xyz
  'x, y, z' 

loop_
_atom_site_label
_atom_site_fract_x
_atom_site_fract_y
_atom_site_fract_z
_atom_site_type_symbol
O          0.0    0.198   0.2581     O
O          0.0    0.198   0.7419     O
Ce         0.0  0.20151  0.20151    Ce
Ce         0.0  0.20151  0.79849    Ce
O          0.0   0.2419    0.302     O
O          0.0   0.2419    0.698     O
O          0.0   0.2581    0.198     O
O          0.0   0.2581    0.802     O
Ce         0.0  0.29849  0.29849    Ce
Ce         0.0  0.29849  0.70151    Ce
O          0.0    0.302   0.2419     O
O          0.0    0.302   0.7581     O
O          0.0    0.698   0.2419     O
O          0.0    0.698   0.7581     O
Ce         0.0  0.70151  0.29849    Ce
Ce         0.0  0.70151  0.70151    Ce
O          0.0   0.7419    0.198     O
O          0.0   0.7419    0.802     O
O          0.0   0.7581    0.302     O
O          0.0   0.7581    0.698     O
Ce         0.0  0.79849  0.20151    Ce
Ce         0.0  0.79849  0.79849    Ce
O          0.0    0.802   0.2581     O
O          0.0    0.802   0.7419     O
O      0.03671  0.15773   0.2092     O
O      0.03671  0.15773   0.7908     O
O      0.03671   0.2092  0.15773     O
O      0.03671   0.2092  0.84227     O
O      0.03671   0.2908  0.34227     O
O      0.03671   0.2908  0.65773     O
O      0.03671  0.34227   0.2908     O
O      0.03671  0.34227   0.7092     O
O      0.03671  0.65773   0.2908     O
O      0.03671  0.65773   0.7092     O
O      0.03671   0.7092  0.34227     O
O      0.03671   0.7092  0.65773     O
O      0.03671   0.7908  0.15773     O
O      0.03671   0.7908  0.84227     O
O      0.03671  0.84227   0.2092     O
O      0.03671  0.84227   0.7908     O
Ce     0.04783  0.21648  0.28352    Ce
Ce     0.04783  0.21648  0.71648    Ce
Ce     0.04783  0.28352  0.21648    Ce
Ce     0.04783  0.28352  0.78352    Ce
Ce     0.04783  0.71648  0.21648    Ce
Ce     0.04783  0.71648  0.78352    Ce
Ce     0.04783  0.78352  0.28352    Ce
Ce     0.04783  0.78352  0.71648    Ce
O       0.0486   0.2265   0.2265     O
O       0.0486   0.2265   0.7735     O
O       0.0486   0.2735   0.2735     O
O       0.0486   0.2735   0.7265     O
O       0.0486   0.7265   0.2735     O
O       0.0486   0.7265   0.7265     O
O       0.0486   0.7735   0.2265     O
O       0.0486   0.7735   0.7735     O
C       0.0601  0.15453   0.2298     C
C       0.0601  0.15453   0.7702     C
C       0.0601   0.2298  0.15453     C
C       0.0601   0.2298  0.84547     C
C       0.0601   0.2702  0.34547     C
C       0.0601   0.2702  0.65453     C
C       0.0601  0.34547   0.2702     C
C       0.0601  0.34547   0.7298     C
C       0.0601  0.65453   0.2702     C
C       0.0601  0.65453   0.7298     C
C       0.0601   0.7298  0.34547     C
C       0.0601   0.7298  0.65453     C
C       0.0601   0.7702  0.15453     C
C       0.0601   0.7702  0.84547     C
C       0.0601  0.84547   0.2298     C
C       0.0601  0.84547   0.7702     C
O      0.06869  0.16882  0.25719     O
O      0.06869  0.16882  0.74281     O
O      0.06869  0.24281  0.33118     O
O      0.06869  0.24281  0.66882     O
O      0.06869  0.25719  0.16882     O
O      0.06869  0.25719  0.83118     O
O      0.06869  0.33118  0.24281     O
O      0.06869  0.33118  0.75719     O
O      0.06869  0.66882  0.24281     O
O      0.06869  0.66882  0.75719     O
O      0.06869  0.74281  0.16882     O
O      0.06869  0.74281  0.83118     O
O      0.06869  0.75719  0.33118     O
O      0.06869  0.75719  0.66882     O
O      0.06869  0.83118  0.25719     O
O      0.06869  0.83118  0.74281     O
N      0.08382   0.1088  0.18951     N
N      0.08382   0.1088  0.81049     N
N      0.08382  0.18951   0.1088     N
N      0.08382  0.18951   0.8912     N
N      0.08382  0.31049   0.3912     N
N      0.08382  0.31049   0.6088     N
N      0.08382   0.3912  0.31049     N
N      0.08382   0.3912  0.68951     N
N      0.08382   0.6088  0.31049     N
N      0.08382   0.6088  0.68951     N
N      0.08382  0.68951   0.3912     N
N      0.08382  0.68951   0.6088     N
N      0.08382  0.81049   0.1088     N
N      0.08382  0.81049   0.8912     N
N      0.08382   0.8912  0.18951     N
N      0.08382   0.8912  0.81049     N
C      0.08414   0.1259   0.2194     C
C      0.08414   0.1259   0.7806     C
C      0.08414   0.2194   0.1259     C
C      0.08414   0.2194   0.8741     C
C      0.08414   0.2806   0.3741     C
C      0.08414   0.2806   0.6259     C
C      0.08414   0.3741   0.2806     C
C      0.08414   0.3741   0.7194     C
C      0.08414   0.6259   0.2806     C
C      0.08414   0.6259   0.7194     C
C      0.08414   0.7194   0.3741     C
C      0.08414   0.7194   0.6259     C
C      0.08414   0.7806   0.1259     C
C      0.08414   0.7806   0.8741     C
C      0.08414   0.8741   0.2194     C
C      0.08414   0.8741   0.7806     C
N       0.1088  0.08382  0.18951     N
N       0.1088  0.08382  0.81049     N
N       0.1088  0.18951  0.08382     N
N       0.1088  0.18951  0.91618     N
N       0.1088  0.31049  0.41618     N
N       0.1088  0.31049  0.58382     N
N       0.1088  0.41618  0.31049     N
N       0.1088  0.41618  0.68951     N
N       0.1088  0.58382  0.31049     N
N       0.1088  0.58382  0.68951     N
N       0.1088  0.68951  0.41618     N
N       0.1088  0.68951  0.58382     N
N       0.1088  0.81049  0.08382     N
N       0.1088  0.81049  0.91618     N
N       0.1088  0.91618  0.18951     N
N       0.1088  0.91618  0.81049     N
C       0.1091   0.1091   0.2369     C
C       0.1091   0.1091   0.7631     C
C       0.1091   0.2369   0.1091     C
C       0.1091   0.2369   0.8909     C
C       0.1091   0.2631   0.3909     C
C       0.1091   0.2631   0.6091     C
C       0.1091   0.3909   0.2631     C
C       0.1091   0.3909   0.7369     C
C       0.1091   0.6091   0.2631     C
C       0.1091   0.6091   0.7369     C
C       0.1091   0.7369   0.3909     C
C       0.1091   0.7369   0.6091     C
C       0.1091   0.7631   0.1091     C
C       0.1091   0.7631   0.8909     C
C       0.1091   0.8909   0.2369     C
C       0.1091   0.8909   0.7631     C
C       0.1259  0.08414   0.2194     C
C       0.1259  0.08414   0.7806     C
C       0.1259   0.2194  0.08414     C
C       0.1259   0.2194  0.91586     C
C       0.1259   0.2806  0.41586     C
C       0.1259   0.2806  0.58414     C
C       0.1259  0.41586   0.2806     C
C       0.1259  0.41586   0.7194     C
C       0.1259  0.58414   0.2806     C
C       0.1259  0.58414   0.7194     C
C       0.1259   0.7194  0.41586     C
C       0.1259   0.7194  0.58414     C
C       0.1259   0.7806  0.08414     C
C       0.1259   0.7806  0.91586     C
C       0.1259  0.91586   0.2194     C
C       0.1259  0.91586   0.7806     C
C      0.15453   0.0601   0.2298     C
C      0.15453   0.0601   0.7702     C
C      0.15453   0.2298   0.0601     C
C      0.15453   0.2298   0.9399     C
C      0.15453   0.2702   0.4399     C
C      0.15453   0.2702   0.5601     C
C      0.15453   0.4399   0.2702     C
C      0.15453   0.4399   0.7298     C
C      0.15453   0.5601   0.2702     C
C      0.15453   0.5601   0.7298     C
C      0.15453   0.7298   0.4399     C
C      0.15453   0.7298   0.5601     C
C      0.15453   0.7702   0.0601     C
C      0.15453   0.7702   0.9399     C
C      0.15453   0.9399   0.2298     C
C      0.15453   0.9399   0.7702     C
O      0.15773  0.03671   0.2092     O
O      0.15773  0.03671   0.7908     O
O      0.15773   0.2092  0.03671     O
O      0.15773   0.2092  0.96329     O
O      0.15773   0.2908  0.46329     O
O      0.15773   0.2908  0.53671     O
O      0.15773  0.46329   0.2908     O
O      0.15773  0.46329   0.7092     O
O      0.15773  0.53671   0.2908     O
O      0.15773  0.53671   0.7092     O
O      0.15773   0.7092  0.46329     O
O      0.15773   0.7092  0.53671     O
O      0.15773   0.7908  0.03671     O
O      0.15773   0.7908  0.96329     O
O      0.15773  0.96329   0.2092     O
O      0.15773  0.96329   0.7908     O
O      0.16882  0.06869  0.25719     O
O      0.16882  0.06869  0.74281     O
O      0.16882  0.24281  0.43131     O
O      0.16882  0.24281  0.56869     O
O      0.16882  0.25719  0.06869     O
O      0.16882  0.25719  0.93131     O
O      0.16882  0.43131  0.24281     O
O      0.16882  0.43131  0.75719     O
O      0.16882  0.56869  0.24281     O
O      0.16882  0.56869  0.75719     O
O      0.16882  0.74281  0.06869     O
O      0.16882  0.74281  0.93131     O
O      0.16882  0.75719  0.43131     O
O      0.16882  0.75719  0.56869     O
O      0.16882  0.93131  0.25719     O
O      0.16882  0.93131  0.74281     O
N      0.18951  0.08382   0.1088     N
N      0.18951  0.08382   0.8912     N
N      0.18951   0.1088  0.08382     N
N      0.18951   0.1088  0.91618     N
N      0.18951   0.3912  0.41618     N
N      0.18951   0.3912  0.58382     N
N      0.18951  0.41618   0.3912     N
N      0.18951  0.41618   0.6088     N
N      0.18951  0.58382   0.3912     N
N      0.18951  0.58382   0.6088     N
N      0.18951   0.6088  0.41618     N
N      0.18951   0.6088  0.58382     N
N      0.18951   0.8912  0.08382     N
N      0.18951   0.8912  0.91618     N
N      0.18951  0.91618   0.1088     N
N      0.18951  0.91618   0.8912     N
O        0.198      0.0   0.2581     O
O        0.198      0.0   0.7419     O
O        0.198   0.2419      0.5     O
O        0.198   0.2581      0.0     O
O        0.198      0.5   0.2419     O
O        0.198      0.5   0.7581     O
O        0.198   0.7419      0.0     O
O        0.198   0.7581      0.5     O
Ce     0.20151      0.0  0.20151    Ce
Ce     0.20151      0.0  0.79849    Ce
Ce     0.20151  0.20151      0.0    Ce
Ce     0.20151  0.29849      0.5    Ce
Ce     0.20151      0.5  0.29849    Ce
Ce     0.20151      0.5  0.70151    Ce
Ce     0.20151  0.70151      0.5    Ce
Ce     0.20151  0.79849      0.0    Ce
O       0.2092  0.03671  0.15773     O
O       0.2092  0.03671  0.84227     O
O       0.2092  0.15773  0.03671     O
O       0.2092  0.15773  0.96329     O
O       0.2092  0.34227  0.46329     O
O       0.2092  0.34227  0.53671     O
O       0.2092  0.46329  0.34227     O
O       0.2092  0.46329  0.65773     O
O       0.2092  0.53671  0.34227     O
O       0.2092  0.53671  0.65773     O
O       0.2092  0.65773  0.46329     O
O       0.2092  0.65773  0.53671     O
O       0.2092  0.84227  0.03671     O
O       0.2092  0.84227  0.96329     O
O       0.2092  0.96329  0.15773     O
O       0.2092  0.96329  0.84227     O
Ce     0.21648  0.04783  0.28352    Ce
Ce     0.21648  0.04783  0.71648    Ce
Ce     0.21648  0.21648  0.45217    Ce
Ce     0.21648  0.21648  0.54783    Ce
Ce     0.21648  0.28352  0.04783    Ce
Ce     0.21648  0.28352  0.95217    Ce
Ce     0.21648  0.45217  0.21648    Ce
Ce     0.21648  0.45217  0.78352    Ce
Ce     0.21648  0.54783  0.21648    Ce
Ce     0.21648  0.54783  0.78352    Ce
Ce     0.21648  0.71648  0.04783    Ce
Ce     0.21648  0.71648  0.95217    Ce
Ce     0.21648  0.78352  0.45217    Ce
Ce     0.21648  0.78352  0.54783    Ce
Ce     0.21648  0.95217  0.28352    Ce
Ce     0.21648  0.95217  0.71648    Ce
C       0.2194  0.08414   0.1259     C
C       0.2194  0.08414   0.8741     C
C       0.2194   0.1259  0.08414     C
C       0.2194   0.1259  0.91586     C
C       0.2194   0.3741  0.41586     C
C       0.2194   0.3741  0.58414     C
C       0.2194  0.41586   0.3741     C
C       0.2194  0.41586   0.6259     C
C       0.2194  0.58414   0.3741     C
C       0.2194  0.58414   0.6259     C
C       0.2194   0.6259  0.41586     C
C       0.2194   0.6259  0.58414     C
C       0.2194   0.8741  0.08414     C
C       0.2194   0.8741  0.91586     C
C       0.2194  0.91586   0.1259     C
C       0.2194  0.91586   0.8741     C
O       0.2265   0.0486   0.2265     O
O       0.2265   0.0486   0.7735     O
O       0.2265   0.2265   0.0486     O
O       0.2265   0.2265   0.9514     O
O       0.2265   0.2735   0.4514     O
O       0.2265   0.2735   0.5486     O
O       0.2265   0.4514   0.2735     O
O       0.2265   0.4514   0.7265     O
O       0.2265   0.5486   0.2735     O
O       0.2265   0.5486   0.7265     O
O       0.2265   0.7265   0.4514     O
O       0.2265   0.7265   0.5486     O
O       0.2265   0.7735   0.0486     O
O       0.2265   0.7735   0.9514     O
O       0.2265   0.9514   0.2265     O
O       0.2265   0.9514   0.7735     O
C       0.2298   0.0601  0.15453     C
C       0.2298   0.0601  0.84547     C
C       0.2298  0.15453   0.0601     C
C       0.2298  0.15453   0.9399     C
C       0.2298  0.34547   0.4399     C
C       0.2298  0.34547   0.5601     C
C       0.2298   0.4399  0.34547     C
C       0.2298   0.4399  0.65453     C
C       0.2298   0.5601  0.34547     C
C       0.2298   0.5601  0.65453     C
C       0.2298  0.65453   0.4399     C
C       0.2298  0.65453   0.5601     C
C       0.2298  0.84547   0.0601     C
C       0.2298  0.84547   0.9399     C
C       0.2298   0.9399  0.15453     C
C       0.2298   0.9399  0.84547     C
C       0.2369   0.1091   0.1091     C
C       0.2369   0.1091   0.8909     C
C       0.2369   0.3909   0.3909     C
C       0.2369   0.3909   0.6091     C
C       0.2369   0.6091   0.3909     C
C       0.2369   0.6091   0.6091     C
C       0.2369   0.8909   0.1091     C
C       0.2369   0.8909   0.8909     C
O       0.2419      0.0    0.302     O
O       0.2419      0.0    0.698     O
O       0.2419    0.198      0.5     O
O       0.2419    0.302      0.0     O
O       0.2419      0.5    0.198     O
O       0.2419      0.5    0.802     O
O       0.2419    0.698      0.0     O
O       0.2419    0.802      0.5     O
O      0.24281  0.06869  0.33118     O
O      0.24281  0.06869  0.66882     O
O      0.24281  0.16882  0.43131     O
O      0.24281  0.16882  0.56869     O
O      0.24281  0.33118  0.06869     O
O      0.24281  0.33118  0.93131     O
O      0.24281  0.43131  0.16882     O
O      0.24281  0.43131  0.83118     O
O      0.24281  0.56869  0.16882     O
O      0.24281  0.56869  0.83118     O
O      0.24281  0.66882  0.06869     O
O      0.24281  0.66882  0.93131     O
O      0.24281  0.83118  0.43131     O
O      0.24281  0.83118  0.56869     O
O      0.24281  0.93131  0.33118     O
O      0.24281  0.93131  0.66882     O
O      0.25719  0.06869  0.16882     O
O      0.25719  0.06869  0.83118     O
O      0.25719  0.16882  0.06869     O
O      0.25719  0.16882  0.93131     O
O      0.25719  0.33118  0.43131     O
O      0.25719  0.33118  0.56869     O
O      0.25719  0.43131  0.33118     O
O      0.25719  0.43131  0.66882     O
O      0.25719  0.56869  0.33118     O
O      0.25719  0.56869  0.66882     O
O      0.25719  0.66882  0.43131     O
O      0.25719  0.66882  0.56869     O
O      0.25719  0.83118  0.06869     O
O      0.25719  0.83118  0.93131     O
O      0.25719  0.93131  0.16882     O
O      0.25719  0.93131  0.83118     O
O       0.2581      0.0    0.198     O
O       0.2581      0.0    0.802     O
O       0.2581    0.198      0.0     O
O       0.2581    0.302      0.5     O
O       0.2581      0.5    0.302     O
O       0.2581      0.5    0.698     O
O       0.2581    0.698      0.5     O
O       0.2581    0.802      0.0     O
C       0.2631   0.1091   0.3909     C
C       0.2631   0.1091   0.6091     C
C       0.2631   0.3909   0.1091     C
C       0.2631   0.3909   0.8909     C
C       0.2631   0.6091   0.1091     C
C       0.2631   0.6091   0.8909     C
C       0.2631   0.8909   0.3909     C
C       0.2631   0.8909   0.6091     C
C       0.2702   0.0601  0.34547     C
C       0.2702   0.0601  0.65453     C
C       0.2702  0.15453   0.4399     C
C       0.2702  0.15453   0.5601     C
C       0.2702  0.34547   0.0601     C
C       0.2702  0.34547   0.9399     C
C       0.2702   0.4399  0.15453     C
C       0.2702   0.4399  0.84547     C
C       0.2702   0.5601  0.15453     C
C       0.2702   0.5601  0.84547     C
C       0.2702  0.65453   0.0601     C
C       0.2702  0.65453   0.9399     C
C       0.2702  0.84547   0.4399     C
C       0.2702  0.84547   0.5601     C
C       0.2702   0.9399  0.34547     C
C       0.2702   0.9399  0.65453     C
O       0.2735   0.0486   0.2735     O
O       0.2735   0.0486   0.7265     O
O       0.2735   0.2265   0.4514     O
O       0.2735   0.2265   0.5486     O
O       0.2735   0.2735   0.0486     O
O       0.2735   0.2735   0.9514     O
O       0.2735   0.4514   0.2265     O
O       0.2735   0.4514   0.7735     O
O       0.2735   0.5486   0.2265     O
O       0.2735   0.5486   0.7735     O
O       0.2735   0.7265   0.0486     O
O       0.2735   0.7265   0.9514     O
O       0.2735   0.7735   0.4514     O
O       0.2735   0.7735   0.5486     O
O       0.2735   0.9514   0.2735     O
O       0.2735   0.9514   0.7265     O
C       0.2806  0.08414   0.3741     C
C       0.2806  0.08414   0.6259     C
C       0.2806   0.1259  0.41586     C
C       0.2806   0.1259  0.58414     C
C       0.2806   0.3741  0.08414     C
C       0.2806   0.3741  0.91586     C
C       0.2806  0.41586   0.1259     C
C       0.2806  0.41586   0.8741     C
C       0.2806  0.58414   0.1259     C
C       0.2806  0.58414   0.8741     C
C       0.2806   0.6259  0.08414     C
C       0.2806   0.6259  0.91586     C
C       0.2806   0.8741  0.41586     C
C       0.2806   0.8741  0.58414     C
C       0.2806  0.91586   0.3741     C
C       0.2806  0.91586   0.6259     C
Ce     0.28352  0.04783  0.21648    Ce
Ce     0.28352  0.04783  0.78352    Ce
Ce     0.28352  0.21648  0.04783    Ce
Ce     0.28352  0.21648  0.95217    Ce
Ce     0.28352  0.28352  0.45217    Ce
Ce     0.28352  0.28352  0.54783    Ce
Ce     0.28352  0.45217  0.28352    Ce
Ce     0.28352  0.45217  0.71648    Ce
Ce     0.28352  0.54783  0.28352    Ce
Ce     0.28352  0.54783  0.71648    Ce
Ce     0.28352  0.71648  0.45217    Ce
Ce     0.28352  0.71648  0.54783    Ce
Ce     0.28352  0.78352  0.04783    Ce
Ce     0.28352  0.78352  0.95217    Ce
Ce     0.28352  0.95217  0.21648    Ce
Ce     0.28352  0.95217  0.78352    Ce
O       0.2908  0.03671  0.34227     O
O       0.2908  0.03671  0.65773     O
O       0.2908  0.15773  0.46329     O
O       0.2908  0.15773  0.53671     O
O       0.2908  0.34227  0.03671     O
O       0.2908  0.34227  0.96329     O
O       0.2908  0.46329  0.15773     O
O       0.2908  0.46329  0.84227     O
O       0.2908  0.53671  0.15773     O
O       0.2908  0.53671  0.84227     O
O       0.2908  0.65773  0.03671     O
O       0.2908  0.65773  0.96329     O
O       0.2908  0.84227  0.46329     O
O       0.2908  0.84227  0.53671     O
O       0.2908  0.96329  0.34227     O
O       0.2908  0.96329  0.65773     O
Ce     0.29849      0.0  0.29849    Ce
Ce     0.29849      0.0  0.70151    Ce
Ce     0.29849  0.20151      0.5    Ce
Ce     0.29849  0.29849      0.0    Ce
Ce     0.29849      0.5  0.20151    Ce
Ce     0.29849      0.5  0.79849    Ce
Ce     0.29849  0.70151      0.0    Ce
Ce     0.29849  0.79849      0.5    Ce
O        0.302      0.0   0.2419     O
O        0.302      0.0   0.7581     O
O        0.302   0.2419      0.0     O
O        0.302   0.2581      0.5     O
O        0.302      0.5   0.2581     O
O        0.302      0.5   0.7419     O
O        0.302   0.7419      0.5     O
O        0.302   0.7581      0.0     O
N      0.31049  0.08382   0.3912     N
N      0.31049  0.08382   0.6088     N
N      0.31049   0.1088  0.41618     N
N      0.31049   0.1088  0.58382     N
N      0.31049   0.3912  0.08382     N
N      0.31049   0.3912  0.91618     N
N      0.31049  0.41618   0.1088     N
N      0.31049  0.41618   0.8912     N
N      0.31049  0.58382   0.1088     N
N      0.31049  0.58382   0.8912     N
N      0.31049   0.6088  0.08382     N
N      0.31049   0.6088  0.91618     N
N      0.31049   0.8912  0.41618     N
N      0.31049   0.8912  0.58382     N
N      0.31049  0.91618   0.3912     N
N      0.31049  0.91618   0.6088     N
O      0.33118  0.06869  0.24281     O
O      0.33118  0.06869  0.75719     O
O      0.33118  0.24281  0.06869     O
O      0.33118  0.24281  0.93131     O
O      0.33118  0.25719  0.43131     O
O      0.33118  0.25719  0.56869     O
O      0.33118  0.43131  0.25719     O
O      0.33118  0.43131  0.74281     O
O      0.33118  0.56869  0.25719     O
O      0.33118  0.56869  0.74281     O
O      0.33118  0.74281  0.43131     O
O      0.33118  0.74281  0.56869     O
O      0.33118  0.75719  0.06869     O
O      0.33118  0.75719  0.93131     O
O      0.33118  0.93131  0.24281     O
O      0.33118  0.93131  0.75719     O
O      0.34227  0.03671   0.2908     O
O      0.34227  0.03671   0.7092     O
O      0.34227   0.2092  0.46329     O
O      0.34227   0.2092  0.53671     O
O      0.34227   0.2908  0.03671     O
O      0.34227   0.2908  0.96329     O
O      0.34227  0.46329   0.2092     O
O      0.34227  0.46329   0.7908     O
O      0.34227  0.53671   0.2092     O
O      0.34227  0.53671   0.7908     O
O      0.34227   0.7092  0.03671     O
O      0.34227   0.7092  0.96329     O
O      0.34227   0.7908  0.46329     O
O      0.34227   0.7908  0.53671     O
O      0.34227  0.96329   0.2908     O
O      0.34227  0.96329   0.7092     O
C      0.34547   0.0601   0.2702     C
C      0.34547   0.0601   0.7298     C
C      0.34547   0.2298   0.4399     C
C      0.34547   0.2298   0.5601     C
C      0.34547   0.2702   0.0601     C
C      0.34547   0.2702   0.9399     C
C      0.34547   0.4399   0.2298     C
C      0.34547   0.4399   0.7702     C
C      0.34547   0.5601   0.2298     C
C      0.34547   0.5601   0.7702     C
C      0.34547   0.7298   0.0601     C
C      0.34547   0.7298   0.9399     C
C      0.34547   0.7702   0.4399     C
C      0.34547   0.7702   0.5601     C
C      0.34547   0.9399   0.2702     C
C      0.34547   0.9399   0.7298     C
C       0.3741  0.08414   0.2806     C
C       0.3741  0.08414   0.7194     C
C       0.3741   0.2194  0.41586     C
C       0.3741   0.2194  0.58414     C
C       0.3741   0.2806  0.08414     C
C       0.3741   0.2806  0.91586     C
C       0.3741  0.41586   0.2194     C
C       0.3741  0.41586   0.7806     C
C       0.3741  0.58414   0.2194     C
C       0.3741  0.58414   0.7806     C
C       0.3741   0.7194  0.08414     C
C       0.3741   0.7194  0.91586     C
C       0.3741   0.7806  0.41586     C
C       0.3741   0.7806  0.58414     C
C       0.3741  0.91586   0.2806     C
C       0.3741  0.91586   0.7194     C
C       0.3909   0.1091   0.2631     C
C       0.3909   0.1091   0.7369     C
C       0.3909   0.2369   0.3909     C
C       0.3909   0.2369   0.6091     C
C       0.3909   0.2631   0.1091     C
C       0.3909   0.2631   0.8909     C
C       0.3909   0.3909   0.2369     C
C       0.3909   0.3909   0.7631     C
C       0.3909   0.6091   0.2369     C
C       0.3909   0.6091   0.7631     C
C       0.3909   0.7369   0.1091     C
C       0.3909   0.7369   0.8909     C
C       0.3909   0.7631   0.3909     C
C       0.3909   0.7631   0.6091     C
C       0.3909   0.8909   0.2631     C
C       0.3909   0.8909   0.7369     C
N       0.3912  0.08382  0.31049     N
N       0.3912  0.08382  0.68951     N
N       0.3912  0.18951  0.41618     N
N       0.3912  0.18951  0.58382     N
N       0.3912  0.31049  0.08382     N
N       0.3912  0.31049  0.91618     N
N       0.3912  0.41618  0.18951     N
N       0.3912  0.41618  0.81049     N
N       0.3912  0.58382  0.18951     N
N       0.3912  0.58382  0.81049     N
N       0.3912  0.68951  0.08382     N
N       0.3912  0.68951  0.91618     N
N       0.3912  0.81049  0.41618     N
N       0.3912  0.81049  0.58382     N
N       0.3912  0.91618  0.31049     N
N       0.3912  0.91618  0.68951     N
C      0.41586   0.1259   0.2806     C
C      0.41586   0.1259   0.7194     C
C      0.41586   0.2194   0.3741     C
C      0.41586   0.2194   0.6259     C
C      0.41586   0.2806   0.1259     C
C      0.41586   0.2806   0.8741     C
C      0.41586   0.3741   0.2194     C
C      0.41586   0.3741   0.7806     C
C      0.41586   0.6259   0.2194     C
C      0.41586   0.6259   0.7806     C
C      0.41586   0.7194   0.1259     C
C      0.41586   0.7194   0.8741     C
C      0.41586   0.7806   0.3741     C
C      0.41586   0.7806   0.6259     C
C      0.41586   0.8741   0.2806     C
C      0.41586   0.8741   0.7194     C
N      0.41618   0.1088  0.31049     N
N      0.41618   0.1088  0.68951     N
N      0.41618  0.18951   0.3912     N
N      0.41618  0.18951   0.6088     N
N      0.41618  0.31049   0.1088     N
N      0.41618  0.31049   0.8912     N
N      0.41618   0.3912  0.18951     N
N      0.41618   0.3912  0.81049     N
N      0.41618   0.6088  0.18951     N
N      0.41618   0.6088  0.81049     N
N      0.41618  0.68951   0.1088     N
N      0.41618  0.68951   0.8912     N
N      0.41618  0.81049   0.3912     N
N      0.41618  0.81049   0.6088     N
N      0.41618   0.8912  0.31049     N
N      0.41618   0.8912  0.68951     N
O      0.43131  0.16882  0.24281     O
O      0.43131  0.16882  0.75719     O
O      0.43131  0.24281  0.16882     O
O      0.43131  0.24281  0.83118     O
O      0.43131  0.25719  0.33118     O
O      0.43131  0.25719  0.66882     O
O      0.43131  0.33118  0.25719     O
O      0.43131  0.33118  0.74281     O
O      0.43131  0.66882  0.25719     O
O      0.43131  0.66882  0.74281     O
O      0.43131  0.74281  0.33118     O
O      0.43131  0.74281  0.66882     O
O      0.43131  0.75719  0.16882     O
O      0.43131  0.75719  0.83118     O
O      0.43131  0.83118  0.24281     O
O      0.43131  0.83118  0.75719     O
C       0.4399  0.15453   0.2702     C
C       0.4399  0.15453   0.7298     C
C       0.4399   0.2298  0.34547     C
C       0.4399   0.2298  0.65453     C
C       0.4399   0.2702  0.15453     C
C       0.4399   0.2702  0.84547     C
C       0.4399  0.34547   0.2298     C
C       0.4399  0.34547   0.7702     C
C       0.4399  0.65453   0.2298     C
C       0.4399  0.65453   0.7702     C
C       0.4399   0.7298  0.15453     C
C       0.4399   0.7298  0.84547     C
C       0.4399   0.7702  0.34547     C
C       0.4399   0.7702  0.65453     C
C       0.4399  0.84547   0.2702     C
C       0.4399  0.84547   0.7298     C
O       0.4514   0.2265   0.2735     O
O       0.4514   0.2265   0.7265     O
O       0.4514   0.2735   0.2265     O
O       0.4514   0.2735   0.7735     O
O       0.4514   0.7265   0.2265     O
O       0.4514   0.7265   0.7735     O
O       0.4514   0.7735   0.2735     O
O       0.4514   0.7735   0.7265     O
Ce     0.45217  0.21648  0.21648    Ce
Ce     0.45217  0.21648  0.78352    Ce
Ce     0.45217  0.28352  0.28352    Ce
Ce     0.45217  0.28352  0.71648    Ce
Ce     0.45217  0.71648  0.28352    Ce
Ce     0.45217  0.71648  0.71648    Ce
Ce     0.45217  0.78352  0.21648    Ce
Ce     0.45217  0.78352  0.78352    Ce
O      0.46329  0.15773   0.2908     O
O      0.46329  0.15773   0.7092     O
O      0.46329   0.2092  0.34227     O
O      0.46329   0.2092  0.65773     O
O      0.46329   0.2908  0.15773     O
O      0.46329   0.2908  0.84227     O
O      0.46329  0.34227   0.2092     O
O      0.46329  0.34227   0.7908     O
O      0.46329  0.65773   0.2092     O
O      0.46329  0.65773   0.7908     O
O      0.46329   0.7092  0.15773     O
O      0.46329   0.7092  0.84227     O
O      0.46329   0.7908  0.34227     O
O      0.46329   0.7908  0.65773     O
O      0.46329  0.84227   0.2908     O
O      0.46329  0.84227   0.7092     O
O          0.5    0.198   0.2419     O
O          0.5    0.198   0.7581     O
Ce         0.5  0.20151  0.29849    Ce
Ce         0.5  0.20151  0.70151    Ce
O          0.5   0.2419    0.198     O
O          0.5   0.2419    0.802     O
O          0.5   0.2581    0.302     O
O          0.5   0.2581    0.698     O
Ce         0.5  0.29849  0.20151    Ce
Ce         0.5  0.29849  0.79849    Ce
O          0.5    0.302   0.2581     O
O          0.5    0.302   0.7419     O
O          0.5    0.698   0.2581     O
O          0.5    0.698   0.7419     O
Ce         0.5  0.70151  0.20151    Ce
Ce         0.5  0.70151  0.79849    Ce
O          0.5   0.7419    0.302     O
O          0.5   0.7419    0.698     O
O          0.5   0.7581    0.198     O
O          0.5   0.7581    0.802     O
Ce         0.5  0.79849  0.29849    Ce
Ce         0.5  0.79849  0.70151    Ce
O          0.5    0.802   0.2419     O
O          0.5    0.802   0.7581     O
O      0.53671  0.15773   0.2908     O
O      0.53671  0.15773   0.7092     O
O      0.53671   0.2092  0.34227     O
O      0.53671   0.2092  0.65773     O
O      0.53671   0.2908  0.15773     O
O      0.53671   0.2908  0.84227     O
O      0.53671  0.34227   0.2092     O
O      0.53671  0.34227   0.7908     O
O      0.53671  0.65773   0.2092     O
O      0.53671  0.65773   0.7908     O
O      0.53671   0.7092  0.15773     O
O      0.53671   0.7092  0.84227     O
O      0.53671   0.7908  0.34227     O
O      0.53671   0.7908  0.65773     O
O      0.53671  0.84227   0.2908     O
O      0.53671  0.84227   0.7092     O
Ce     0.54783  0.21648  0.21648    Ce
Ce     0.54783  0.21648  0.78352    Ce
Ce     0.54783  0.28352  0.28352    Ce
Ce     0.54783  0.28352  0.71648    Ce
Ce     0.54783  0.71648  0.28352    Ce
Ce     0.54783  0.71648  0.71648    Ce
Ce     0.54783  0.78352  0.21648    Ce
Ce     0.54783  0.78352  0.78352    Ce
O       0.5486   0.2265   0.2735     O
O       0.5486   0.2265   0.7265     O
O       0.5486   0.2735   0.2265     O
O       0.5486   0.2735   0.7735     O
O       0.5486   0.7265   0.2265     O
O       0.5486   0.7265   0.7735     O
O       0.5486   0.7735   0.2735     O
O       0.5486   0.7735   0.7265     O
C       0.5601  0.15453   0.2702     C
C       0.5601  0.15453   0.7298     C
C       0.5601   0.2298  0.34547     C
C       0.5601   0.2298  0.65453     C
C       0.5601   0.2702  0.15453     C
C       0.5601   0.2702  0.84547     C
C       0.5601  0.34547   0.2298     C
C       0.5601  0.34547   0.7702     C
C       0.5601  0.65453   0.2298     C
C       0.5601  0.65453   0.7702     C
C       0.5601   0.7298  0.15453     C
C       0.5601   0.7298  0.84547     C
C       0.5601   0.7702  0.34547     C
C       0.5601   0.7702  0.65453     C
C       0.5601  0.84547   0.2702     C
C       0.5601  0.84547   0.7298     C
O      0.56869  0.16882  0.24281     O
O      0.56869  0.16882  0.75719     O
O      0.56869  0.24281  0.16882     O
O      0.56869  0.24281  0.83118     O
O      0.56869  0.25719  0.33118     O
O      0.56869  0.25719  0.66882     O
O      0.56869  0.33118  0.25719     O
O      0.56869  0.33118  0.74281     O
O      0.56869  0.66882  0.25719     O
O      0.56869  0.66882  0.74281     O
O      0.56869  0.74281  0.33118     O
O      0.56869  0.74281  0.66882     O
O      0.56869  0.75719  0.16882     O
O      0.56869  0.75719  0.83118     O
O      0.56869  0.83118  0.24281     O
O      0.56869  0.83118  0.75719     O
N      0.58382   0.1088  0.31049     N
N      0.58382   0.1088  0.68951     N
N      0.58382  0.18951   0.3912     N
N      0.58382  0.18951   0.6088     N
N      0.58382  0.31049   0.1088     N
N      0.58382  0.31049   0.8912     N
N      0.58382   0.3912  0.18951     N
N      0.58382   0.3912  0.81049     N
N      0.58382   0.6088  0.18951     N
N      0.58382   0.6088  0.81049     N
N      0.58382  0.68951   0.1088     N
N      0.58382  0.68951   0.8912     N
N      0.58382  0.81049   0.3912     N
N      0.58382  0.81049   0.6088     N
N      0.58382   0.8912  0.31049     N
N      0.58382   0.8912  0.68951     N
C      0.58414   0.1259   0.2806     C
C      0.58414   0.1259   0.7194     C
C      0.58414   0.2194   0.3741     C
C      0.58414   0.2194   0.6259     C
C      0.58414   0.2806   0.1259     C
C      0.58414   0.2806   0.8741     C
C      0.58414   0.3741   0.2194     C
C      0.58414   0.3741   0.7806     C
C      0.58414   0.6259   0.2194     C
C      0.58414   0.6259   0.7806     C
C      0.58414   0.7194   0.1259     C
C      0.58414   0.7194   0.8741     C
C      0.58414   0.7806   0.3741     C
C      0.58414   0.7806   0.6259     C
C      0.58414   0.8741   0.2806     C
C      0.58414   0.8741   0.7194     C
N       0.6088  0.08382  0.31049     N
N       0.6088  0.08382  0.68951     N
N       0.6088  0.18951  0.41618     N
N       0.6088  0.18951  0.58382     N
N       0.6088  0.31049  0.08382     N
N       0.6088  0.31049  0.91618     N
N       0.6088  0.41618  0.18951     N
N       0.6088  0.41618  0.81049     N
N       0.6088  0.58382  0.18951     N
N       0.6088  0.58382  0.81049     N
N       0.6088  0.68951  0.08382     N
N       0.6088  0.68951  0.91618     N
N       0.6088  0.81049  0.41618     N
N       0.6088  0.81049  0.58382     N
N       0.6088  0.91618  0.31049     N
N       0.6088  0.91618  0.68951     N
C       0.6091   0.1091   0.2631     C
C       0.6091   0.1091   0.7369     C
C       0.6091   0.2369   0.3909     C
C       0.6091   0.2369   0.6091     C
C       0.6091   0.2631   0.1091     C
C       0.6091   0.2631   0.8909     C
C       0.6091   0.3909   0.2369     C
C       0.6091   0.3909   0.7631     C
C       0.6091   0.6091   0.2369     C
C       0.6091   0.6091   0.7631     C
C       0.6091   0.7369   0.1091     C
C       0.6091   0.7369   0.8909     C
C       0.6091   0.7631   0.3909     C
C       0.6091   0.7631   0.6091     C
C       0.6091   0.8909   0.2631     C
C       0.6091   0.8909   0.7369     C
C       0.6259  0.08414   0.2806     C
C       0.6259  0.08414   0.7194     C
C       0.6259   0.2194  0.41586     C
C       0.6259   0.2194  0.58414     C
C       0.6259   0.2806  0.08414     C
C       0.6259   0.2806  0.91586     C
C       0.6259  0.41586   0.2194     C
C       0.6259  0.41586   0.7806     C
C       0.6259  0.58414   0.2194     C
C       0.6259  0.58414   0.7806     C
C       0.6259   0.7194  0.08414     C
C       0.6259   0.7194  0.91586     C
C       0.6259   0.7806  0.41586     C
C       0.6259   0.7806  0.58414     C
C       0.6259  0.91586   0.2806     C
C       0.6259  0.91586   0.7194     C
C      0.65453   0.0601   0.2702     C
C      0.65453   0.0601   0.7298     C
C      0.65453   0.2298   0.4399     C
C      0.65453   0.2298   0.5601     C
C      0.65453   0.2702   0.0601     C
C      0.65453   0.2702   0.9399     C
C      0.65453   0.4399   0.2298     C
C      0.65453   0.4399   0.7702     C
C      0.65453   0.5601   0.2298     C
C      0.65453   0.5601   0.7702     C
C      0.65453   0.7298   0.0601     C
C      0.65453   0.7298   0.9399     C
C      0.65453   0.7702   0.4399     C
C      0.65453   0.7702   0.5601     C
C      0.65453   0.9399   0.2702     C
C      0.65453   0.9399   0.7298     C
O      0.65773  0.03671   0.2908     O
O      0.65773  0.03671   0.7092     O
O      0.65773   0.2092  0.46329     O
O      0.65773   0.2092  0.53671     O
O      0.65773   0.2908  0.03671     O
O      0.65773   0.2908  0.96329     O
O      0.65773  0.46329   0.2092     O
O      0.65773  0.46329   0.7908     O
O      0.65773  0.53671   0.2092     O
O      0.65773  0.53671   0.7908     O
O      0.65773   0.7092  0.03671     O
O      0.65773   0.7092  0.96329     O
O      0.65773   0.7908  0.46329     O
O      0.65773   0.7908  0.53671     O
O      0.65773  0.96329   0.2908     O
O      0.65773  0.96329   0.7092     O
O      0.66882  0.06869  0.24281     O
O      0.66882  0.06869  0.75719     O
O      0.66882  0.24281  0.06869     O
O      0.66882  0.24281  0.93131     O
O      0.66882  0.25719  0.43131     O
O      0.66882  0.25719  0.56869     O
O      0.66882  0.43131  0.25719     O
O      0.66882  0.43131  0.74281     O
O      0.66882  0.56869  0.25719     O
O      0.66882  0.56869  0.74281     O
O      0.66882  0.74281  0.43131     O
O      0.66882  0.74281  0.56869     O
O      0.66882  0.75719  0.06869     O
O      0.66882  0.75719  0.93131     O
O      0.66882  0.93131  0.24281     O
O      0.66882  0.93131  0.75719     O
N      0.68951  0.08382   0.3912     N
N      0.68951  0.08382   0.6088     N
N      0.68951   0.1088  0.41618     N
N      0.68951   0.1088  0.58382     N
N      0.68951   0.3912  0.08382     N
N      0.68951   0.3912  0.91618     N
N      0.68951  0.41618   0.1088     N
N      0.68951  0.41618   0.8912     N
N      0.68951  0.58382   0.1088     N
N      0.68951  0.58382   0.8912     N
N      0.68951   0.6088  0.08382     N
N      0.68951   0.6088  0.91618     N
N      0.68951   0.8912  0.41618     N
N      0.68951   0.8912  0.58382     N
N      0.68951  0.91618   0.3912     N
N      0.68951  0.91618   0.6088     N
O        0.698      0.0   0.2419     O
O        0.698      0.0   0.7581     O
O        0.698   0.2419      0.0     O
O        0.698   0.2581      0.5     O
O        0.698      0.5   0.2581     O
O        0.698      0.5   0.7419     O
O        0.698   0.7419      0.5     O
O        0.698   0.7581      0.0     O
Ce     0.70151      0.0  0.29849    Ce
Ce     0.70151      0.0  0.70151    Ce
Ce     0.70151  0.20151      0.5    Ce
Ce     0.70151  0.29849      0.0    Ce
Ce     0.70151      0.5  0.20151    Ce
Ce     0.70151      0.5  0.79849    Ce
Ce     0.70151  0.70151      0.0    Ce
Ce     0.70151  0.79849      0.5    Ce
O       0.7092  0.03671  0.34227     O
O       0.7092  0.03671  0.65773     O
O       0.7092  0.15773  0.46329     O
O       0.7092  0.15773  0.53671     O
O       0.7092  0.34227  0.03671     O
O       0.7092  0.34227  0.96329     O
O       0.7092  0.46329  0.15773     O
O       0.7092  0.46329  0.84227     O
O       0.7092  0.53671  0.15773     O
O       0.7092  0.53671  0.84227     O
O       0.7092  0.65773  0.03671     O
O       0.7092  0.65773  0.96329     O
O       0.7092  0.84227  0.46329     O
O       0.7092  0.84227  0.53671     O
O       0.7092  0.96329  0.34227     O
O       0.7092  0.96329  0.65773     O
Ce     0.71648  0.04783  0.21648    Ce
Ce     0.71648  0.04783  0.78352    Ce
Ce     0.71648  0.21648  0.04783    Ce
Ce     0.71648  0.21648  0.95217    Ce
Ce     0.71648  0.28352  0.45217    Ce
Ce     0.71648  0.28352  0.54783    Ce
Ce     0.71648  0.45217  0.28352    Ce
Ce     0.71648  0.45217  0.71648    Ce
Ce     0.71648  0.54783  0.28352    Ce
Ce     0.71648  0.54783  0.71648    Ce
Ce     0.71648  0.71648  0.45217    Ce
Ce     0.71648  0.71648  0.54783    Ce
Ce     0.71648  0.78352  0.04783    Ce
Ce     0.71648  0.78352  0.95217    Ce
Ce     0.71648  0.95217  0.21648    Ce
Ce     0.71648  0.95217  0.78352    Ce
C       0.7194  0.08414   0.3741     C
C       0.7194  0.08414   0.6259     C
C       0.7194   0.1259  0.41586     C
C       0.7194   0.1259  0.58414     C
C       0.7194   0.3741  0.08414     C
C       0.7194   0.3741  0.91586     C
C       0.7194  0.41586   0.1259     C
C       0.7194  0.41586   0.8741     C
C       0.7194  0.58414   0.1259     C
C       0.7194  0.58414   0.8741     C
C       0.7194   0.6259  0.08414     C
C       0.7194   0.6259  0.91586     C
C       0.7194   0.8741  0.41586     C
C       0.7194   0.8741  0.58414     C
C       0.7194  0.91586   0.3741     C
C       0.7194  0.91586   0.6259     C
O       0.7265   0.0486   0.2735     O
O       0.7265   0.0486   0.7265     O
O       0.7265   0.2265   0.4514     O
O       0.7265   0.2265   0.5486     O
O       0.7265   0.2735   0.0486     O
O       0.7265   0.2735   0.9514     O
O       0.7265   0.4514   0.2265     O
O       0.7265   0.4514   0.7735     O
O       0.7265   0.5486   0.2265     O
O       0.7265   0.5486   0.7735     O
O       0.7265   0.7265   0.0486     O
O       0.7265   0.7265   0.9514     O
O       0.7265   0.7735   0.4514     O
O       0.7265   0.7735   0.5486     O
O       0.7265   0.9514   0.2735     O
O       0.7265   0.9514   0.7265     O
C       0.7298   0.0601  0.34547     C
C       0.7298   0.0601  0.65453     C
C       0.7298  0.15453   0.4399     C
C       0.7298  0.15453   0.5601     C
C       0.7298  0.34547   0.0601     C
C       0.7298  0.34547   0.9399     C
C       0.7298   0.4399  0.15453     C
C       0.7298   0.4399  0.84547     C
C       0.7298   0.5601  0.15453     C
C       0.7298   0.5601  0.84547     C
C       0.7298  0.65453   0.0601     C
C       0.7298  0.65453   0.9399     C
C       0.7298  0.84547   0.4399     C
C       0.7298  0.84547   0.5601     C
C       0.7298   0.9399  0.34547     C
C       0.7298   0.9399  0.65453     C
C       0.7369   0.1091   0.3909     C
C       0.7369   0.1091   0.6091     C
C       0.7369   0.3909   0.1091     C
C       0.7369   0.3909   0.8909     C
C       0.7369   0.6091   0.1091     C
C       0.7369   0.6091   0.8909     C
C       0.7369   0.8909   0.3909     C
C       0.7369   0.8909   0.6091     C
O       0.7419      0.0    0.198     O
O       0.7419      0.0    0.802     O
O       0.7419    0.198      0.0     O
O       0.7419    0.302      0.5     O
O       0.7419      0.5    0.302     O
O       0.7419      0.5    0.698     O
O       0.7419    0.698      0.5     O
O       0.7419    0.802      0.0     O
O      0.74281  0.06869  0.16882     O
O      0.74281  0.06869  0.83118     O
O      0.74281  0.16882  0.06869     O
O      0.74281  0.16882  0.93131     O
O      0.74281  0.33118  0.43131     O
O      0.74281  0.33118  0.56869     O
O      0.74281  0.43131  0.33118     O
O      0.74281  0.43131  0.66882     O
O      0.74281  0.56869  0.33118     O
O      0.74281  0.56869  0.66882     O
O      0.74281  0.66882  0.43131     O
O      0.74281  0.66882  0.56869     O
O      0.74281  0.83118  0.06869     O
O      0.74281  0.83118  0.93131     O
O      0.74281  0.93131  0.16882     O
O      0.74281  0.93131  0.83118     O
O      0.75719  0.06869  0.33118     O
O      0.75719  0.06869  0.66882     O
O      0.75719  0.16882  0.43131     O
O      0.75719  0.16882  0.56869     O
O      0.75719  0.33118  0.06869     O
O      0.75719  0.33118  0.93131     O
O      0.75719  0.43131  0.16882     O
O      0.75719  0.43131  0.83118     O
O      0.75719  0.56869  0.16882     O
O      0.75719  0.56869  0.83118     O
O      0.75719  0.66882  0.06869     O
O      0.75719  0.66882  0.93131     O
O      0.75719  0.83118  0.43131     O
O      0.75719  0.83118  0.56869     O
O      0.75719  0.93131  0.33118     O
O      0.75719  0.93131  0.66882     O
O       0.7581      0.0    0.302     O
O       0.7581      0.0    0.698     O
O       0.7581    0.198      0.5     O
O       0.7581    0.302      0.0     O
O       0.7581      0.5    0.198     O
O       0.7581      0.5    0.802     O
O       0.7581    0.698      0.0     O
O       0.7581    0.802      0.5     O
C       0.7631   0.1091   0.1091     C
C       0.7631   0.1091   0.8909     C
C       0.7631   0.3909   0.3909     C
C       0.7631   0.3909   0.6091     C
C       0.7631   0.6091   0.3909     C
C       0.7631   0.6091   0.6091     C
C       0.7631   0.8909   0.1091     C
C       0.7631   0.8909   0.8909     C
C       0.7702   0.0601  0.15453     C
C       0.7702   0.0601  0.84547     C
C       0.7702  0.15453   0.0601     C
C       0.7702  0.15453   0.9399     C
C       0.7702  0.34547   0.4399     C
C       0.7702  0.34547   0.5601     C
C       0.7702   0.4399  0.34547     C
C       0.7702   0.4399  0.65453     C
C       0.7702   0.5601  0.34547     C
C       0.7702   0.5601  0.65453     C
C       0.7702  0.65453   0.4399     C
C       0.7702  0.65453   0.5601     C
C       0.7702  0.84547   0.0601     C
C       0.7702  0.84547   0.9399     C
C       0.7702   0.9399  0.15453     C
C       0.7702   0.9399  0.84547     C
O       0.7735   0.0486   0.2265     O
O       0.7735   0.0486   0.7735     O
O       0.7735   0.2265   0.0486     O
O       0.7735   0.2265   0.9514     O
O       0.7735   0.2735   0.4514     O
O       0.7735   0.2735   0.5486     O
O       0.7735   0.4514   0.2735     O
O       0.7735   0.4514   0.7265     O
O       0.7735   0.5486   0.2735     O
O       0.7735   0.5486   0.7265     O
O       0.7735   0.7265   0.4514     O
O       0.7735   0.7265   0.5486     O
O       0.7735   0.7735   0.0486     O
O       0.7735   0.7735   0.9514     O
O       0.7735   0.9514   0.2265     O
O       0.7735   0.9514   0.7735     O
C       0.7806  0.08414   0.1259     C
C       0.7806  0.08414   0.8741     C
C       0.7806   0.1259  0.08414     C
C       0.7806   0.1259  0.91586     C
C       0.7806   0.3741  0.41586     C
C       0.7806   0.3741  0.58414     C
C       0.7806  0.41586   0.3741     C
C       0.7806  0.41586   0.6259     C
C       0.7806  0.58414   0.3741     C
C       0.7806  0.58414   0.6259     C
C       0.7806   0.6259  0.41586     C
C       0.7806   0.6259  0.58414     C
C       0.7806   0.8741  0.08414     C
C       0.7806   0.8741  0.91586     C
C       0.7806  0.91586   0.1259     C
C       0.7806  0.91586   0.8741     C
Ce     0.78352  0.04783  0.28352    Ce
Ce     0.78352  0.04783  0.71648    Ce
Ce     0.78352  0.21648  0.45217    Ce
Ce     0.78352  0.21648  0.54783    Ce
Ce     0.78352  0.28352  0.04783    Ce
Ce     0.78352  0.28352  0.95217    Ce
Ce     0.78352  0.45217  0.21648    Ce
Ce     0.78352  0.45217  0.78352    Ce
Ce     0.78352  0.54783  0.21648    Ce
Ce     0.78352  0.54783  0.78352    Ce
Ce     0.78352  0.71648  0.04783    Ce
Ce     0.78352  0.71648  0.95217    Ce
Ce     0.78352  0.78352  0.45217    Ce
Ce     0.78352  0.78352  0.54783    Ce
Ce     0.78352  0.95217  0.28352    Ce
Ce     0.78352  0.95217  0.71648    Ce
O       0.7908  0.03671  0.15773     O
O       0.7908  0.03671  0.84227     O
O       0.7908  0.15773  0.03671     O
O       0.7908  0.15773  0.96329     O
O       0.7908  0.34227  0.46329     O
O       0.7908  0.34227  0.53671     O
O       0.7908  0.46329  0.34227     O
O       0.7908  0.46329  0.65773     O
O       0.7908  0.53671  0.34227     O
O       0.7908  0.53671  0.65773     O
O       0.7908  0.65773  0.46329     O
O       0.7908  0.65773  0.53671     O
O       0.7908  0.84227  0.03671     O
O       0.7908  0.84227  0.96329     O
O       0.7908  0.96329  0.15773     O
O       0.7908  0.96329  0.84227     O
Ce     0.79849      0.0  0.20151    Ce
Ce     0.79849      0.0  0.79849    Ce
Ce     0.79849  0.20151      0.0    Ce
Ce     0.79849  0.29849      0.5    Ce
Ce     0.79849      0.5  0.29849    Ce
Ce     0.79849      0.5  0.70151    Ce
Ce     0.79849  0.70151      0.5    Ce
Ce     0.79849  0.79849      0.0    Ce
O        0.802      0.0   0.2581     O
O        0.802      0.0   0.7419     O
O        0.802   0.2419      0.5     O
O        0.802   0.2581      0.0     O
O        0.802      0.5   0.2419     O
O        0.802      0.5   0.7581     O
O        0.802   0.7419      0.0     O
O        0.802   0.7581      0.5     O
N      0.81049  0.08382   0.1088     N
N      0.81049  0.08382   0.8912     N
N      0.81049   0.1088  0.08382     N
N      0.81049   0.1088  0.91618     N
N      0.81049   0.3912  0.41618     N
N      0.81049   0.3912  0.58382     N
N      0.81049  0.41618   0.3912     N
N      0.81049  0.41618   0.6088     N
N      0.81049  0.58382   0.3912     N
N      0.81049  0.58382   0.6088     N
N      0.81049   0.6088  0.41618     N
N      0.81049   0.6088  0.58382     N
N      0.81049   0.8912  0.08382     N
N      0.81049   0.8912  0.91618     N
N      0.81049  0.91618   0.1088     N
N      0.81049  0.91618   0.8912     N
O      0.83118  0.06869  0.25719     O
O      0.83118  0.06869  0.74281     O
O      0.83118  0.24281  0.43131     O
O      0.83118  0.24281  0.56869     O
O      0.83118  0.25719  0.06869     O
O      0.83118  0.25719  0.93131     O
O      0.83118  0.43131  0.24281     O
O      0.83118  0.43131  0.75719     O
O      0.83118  0.56869  0.24281     O
O      0.83118  0.56869  0.75719     O
O      0.83118  0.74281  0.06869     O
O      0.83118  0.74281  0.93131     O
O      0.83118  0.75719  0.43131     O
O      0.83118  0.75719  0.56869     O
O      0.83118  0.93131  0.25719     O
O      0.83118  0.93131  0.74281     O
O      0.84227  0.03671   0.2092     O
O      0.84227  0.03671   0.7908     O
O      0.84227   0.2092  0.03671     O
O      0.84227   0.2092  0.96329     O
O      0.84227   0.2908  0.46329     O
O      0.84227   0.2908  0.53671     O
O      0.84227  0.46329   0.2908     O
O      0.84227  0.46329   0.7092     O
O      0.84227  0.53671   0.2908     O
O      0.84227  0.53671   0.7092     O
O      0.84227   0.7092  0.46329     O
O      0.84227   0.7092  0.53671     O
O      0.84227   0.7908  0.03671     O
O      0.84227   0.7908  0.96329     O
O      0.84227  0.96329   0.2092     O
O      0.84227  0.96329   0.7908     O
C      0.84547   0.0601   0.2298     C
C      0.84547   0.0601   0.7702     C
C      0.84547   0.2298   0.0601     C
C      0.84547   0.2298   0.9399     C
C      0.84547   0.2702   0.4399     C
C      0.84547   0.2702   0.5601     C
C      0.84547   0.4399   0.2702     C
C      0.84547   0.4399   0.7298     C
C      0.84547   0.5601   0.2702     C
C      0.84547   0.5601   0.7298     C
C      0.84547   0.7298   0.4399     C
C      0.84547   0.7298   0.5601     C
C      0.84547   0.7702   0.0601     C
C      0.84547   0.7702   0.9399     C
C      0.84547   0.9399   0.2298     C
C      0.84547   0.9399   0.7702     C
C       0.8741  0.08414   0.2194     C
C       0.8741  0.08414   0.7806     C
C       0.8741   0.2194  0.08414     C
C       0.8741   0.2194  0.91586     C
C       0.8741   0.2806  0.41586     C
C       0.8741   0.2806  0.58414     C
C       0.8741  0.41586   0.2806     C
C       0.8741  0.41586   0.7194     C
C       0.8741  0.58414   0.2806     C
C       0.8741  0.58414   0.7194     C
C       0.8741   0.7194  0.41586     C
C       0.8741   0.7194  0.58414     C
C       0.8741   0.7806  0.08414     C
C       0.8741   0.7806  0.91586     C
C       0.8741  0.91586   0.2194     C
C       0.8741  0.91586   0.7806     C
C       0.8909   0.1091   0.2369     C
C       0.8909   0.1091   0.7631     C
C       0.8909   0.2369   0.1091     C
C       0.8909   0.2369   0.8909     C
C       0.8909   0.2631   0.3909     C
C       0.8909   0.2631   0.6091     C
C       0.8909   0.3909   0.2631     C
C       0.8909   0.3909   0.7369     C
C       0.8909   0.6091   0.2631     C
C       0.8909   0.6091   0.7369     C
C       0.8909   0.7369   0.3909     C
C       0.8909   0.7369   0.6091     C
C       0.8909   0.7631   0.1091     C
C       0.8909   0.7631   0.8909     C
C       0.8909   0.8909   0.2369     C
C       0.8909   0.8909   0.7631     C
N       0.8912  0.08382  0.18951     N
N       0.8912  0.08382  0.81049     N
N       0.8912  0.18951  0.08382     N
N       0.8912  0.18951  0.91618     N
N       0.8912  0.31049  0.41618     N
N       0.8912  0.31049  0.58382     N
N       0.8912  0.41618  0.31049     N
N       0.8912  0.41618  0.68951     N
N       0.8912  0.58382  0.31049     N
N       0.8912  0.58382  0.68951     N
N       0.8912  0.68951  0.41618     N
N       0.8912  0.68951  0.58382     N
N       0.8912  0.81049  0.08382     N
N       0.8912  0.81049  0.91618     N
N       0.8912  0.91618  0.18951     N
N       0.8912  0.91618  0.81049     N
C      0.91586   0.1259   0.2194     C
C      0.91586   0.1259   0.7806     C
C      0.91586   0.2194   0.1259     C
C      0.91586   0.2194   0.8741     C
C      0.91586   0.2806   0.3741     C
C      0.91586   0.2806   0.6259     C
C      0.91586   0.3741   0.2806     C
C      0.91586   0.3741   0.7194     C
C      0.91586   0.6259   0.2806     C
C      0.91586   0.6259   0.7194     C
C      0.91586   0.7194   0.3741     C
C      0.91586   0.7194   0.6259     C
C      0.91586   0.7806   0.1259     C
C      0.91586   0.7806   0.8741     C
C      0.91586   0.8741   0.2194     C
C      0.91586   0.8741   0.7806     C
N      0.91618   0.1088  0.18951     N
N      0.91618   0.1088  0.81049     N
N      0.91618  0.18951   0.1088     N
N      0.91618  0.18951   0.8912     N
N      0.91618  0.31049   0.3912     N
N      0.91618  0.31049   0.6088     N
N      0.91618   0.3912  0.31049     N
N      0.91618   0.3912  0.68951     N
N      0.91618   0.6088  0.31049     N
N      0.91618   0.6088  0.68951     N
N      0.91618  0.68951   0.3912     N
N      0.91618  0.68951   0.6088     N
N      0.91618  0.81049   0.1088     N
N      0.91618  0.81049   0.8912     N
N      0.91618   0.8912  0.18951     N
N      0.91618   0.8912  0.81049     N
O      0.93131  0.16882  0.25719     O
O      0.93131  0.16882  0.74281     O
O      0.93131  0.24281  0.33118     O
O      0.93131  0.24281  0.66882     O
O      0.93131  0.25719  0.16882     O
O      0.93131  0.25719  0.83118     O
O      0.93131  0.33118  0.24281     O
O      0.93131  0.33118  0.75719     O
O      0.93131  0.66882  0.24281     O
O      0.93131  0.66882  0.75719     O
O      0.93131  0.74281  0.16882     O
O      0.93131  0.74281  0.83118     O
O      0.93131  0.75719  0.33118     O
O      0.93131  0.75719  0.66882     O
O      0.93131  0.83118  0.25719     O
O      0.93131  0.83118  0.74281     O
C       0.9399  0.15453   0.2298     C
C       0.9399  0.15453   0.7702     C
C       0.9399   0.2298  0.15453     C
C       0.9399   0.2298  0.84547     C
C       0.9399   0.2702  0.34547     C
C       0.9399   0.2702  0.65453     C
C       0.9399  0.34547   0.2702     C
C       0.9399  0.34547   0.7298     C
C       0.9399  0.65453   0.2702     C
C       0.9399  0.65453   0.7298     C
C       0.9399   0.7298  0.34547     C
C       0.9399   0.7298  0.65453     C
C       0.9399   0.7702  0.15453     C
C       0.9399   0.7702  0.84547     C
C       0.9399  0.84547   0.2298     C
C       0.9399  0.84547   0.7702     C
O       0.9514   0.2265   0.2265     O
O       0.9514   0.2265   0.7735     O
O       0.9514   0.2735   0.2735     O
O       0.9514   0.2735   0.7265     O
O       0.9514   0.7265   0.2735     O
O       0.9514   0.7265   0.7265     O
O       0.9514   0.7735   0.2265     O
O       0.9514   0.7735   0.7735     O
Ce     0.95217  0.21648  0.28352    Ce
Ce     0.95217  0.21648  0.71648    Ce
Ce     0.95217  0.28352  0.21648    Ce
Ce     0.95217  0.28352  0.78352    Ce
Ce     0.95217  0.71648  0.21648    Ce
Ce     0.95217  0.71648  0.78352    Ce
Ce     0.95217  0.78352  0.28352    Ce
Ce     0.95217  0.78352  0.71648    Ce
O      0.96329  0.15773   0.2092     O
O      0.96329  0.15773   0.7908     O
O      0.96329   0.2092  0.15773     O
O      0.96329   0.2092  0.84227     O
O      0.96329   0.2908  0.34227     O
O      0.96329   0.2908  0.65773     O
O      0.96329  0.34227   0.2908     O
O      0.96329  0.34227   0.7092     O
O      0.96329  0.65773   0.2908     O
O      0.96329  0.65773   0.7092     O
O      0.96329   0.7092  0.34227     O
O      0.96329   0.7092  0.65773     O
O      0.96329   0.7908  0.15773     O
O      0.96329   0.7908  0.84227     O
O      0.96329  0.84227   0.2092     O
O      0.96329  0.84227   0.7908     O
