data_I
_chemical_name_common  '/home/zhangsd/repos/MofS-CGCNN/ML/data/WS24/clean_cifs/JOCPIB'
_cell_length_a 10.00100
_cell_length_b 15.55080
_cell_length_c 15.55080
_cell_angle_alpha 84.06500
_cell_angle_beta  71.24280
_cell_angle_gamma 71.24270
_space_group_name_H-M_alt      'P 1'


loop_
_space_group_symop_operation_xyz
  'x, y, z' 

loop_
_atom_site_label
_atom_site_fract_x
_atom_site_fract_y
_atom_site_fract_z
_atom_site_type_symbol
N      0.01626  0.06543  0.17905     N
N      0.01626  0.17905  0.06543     N
C      0.01804  0.27664  0.83668     C
C      0.01804  0.83668  0.27664     C
C       0.0225   0.2425   0.7575     C
C       0.0225   0.7575   0.2425     C
C         0.03   0.7425   0.7425     C
C        0.045   0.8943   0.8943     C
F       0.0566   0.4048   0.5952     F
F       0.0566   0.5952   0.4048     F
H       0.0566   0.6405   0.8313     H
H       0.0566   0.8313   0.6405     H
N      0.06758  0.10614   0.3385     N
N      0.06758   0.3385  0.10614     N
H       0.0711   0.7945   0.9845     H
H       0.0711   0.9845   0.7945     H
C       0.0834    0.124    0.124     C
C       0.0877   0.2288   0.4022     C
C       0.0877   0.4022   0.2288     C
C      0.10472  0.66332  0.77664     C
C      0.10472  0.77664  0.66332     C
N      0.11253  0.23317  0.88077     N
N      0.11253  0.88077  0.23317     N
H       0.1156   0.4845   0.7055     H
H       0.1156   0.7055   0.4845     H
C      0.11948  0.83107  0.94377     C
C      0.11948  0.94377  0.83107     C
Cu     0.12874  0.26113  0.99859    Cu
Cu     0.12874  0.99859  0.26113    Cu
C      0.13136  0.16332  0.72336     C
C      0.13136  0.72336  0.16332     C
H       0.1379   0.1405   0.6687     H
H       0.1379   0.6687   0.1405     H
C       0.1485   0.1563   0.3467     C
C       0.1485   0.3467   0.1563     C
F        0.172  0.27754  0.41166     F
F        0.172  0.41166  0.27754     F
O      0.17544  0.42102   0.8847     O
O      0.17544   0.8847  0.42102     O
C       0.1893   0.3943   0.6057     C
C       0.1893   0.6057   0.3943     C
C      0.20055  0.44377  0.66893     C
C      0.20055  0.66893  0.44377     C
O      0.20249  0.12891  0.12891     O
C       0.2165   0.1523   0.8477     C
C       0.2165   0.8477   0.1523     C
N      0.22647  0.11923  0.76683     N
N      0.22647  0.76683  0.11923     N
N       0.2433  0.61923  0.73317     N
N       0.2433  0.73317  0.61923     N
H       0.2486    0.141   0.3134     H
H       0.2486   0.3134    0.141     H
N      0.26074  0.82095  0.93457     N
N      0.26074  0.93457  0.82095     N
C      0.29769   0.3718  0.88922     C
C      0.29769  0.88922   0.3718     C
O       0.3009   0.1089   0.8911     O
O       0.3009   0.8911   0.1089     O
H       0.3056   0.2945   0.5155     H
H       0.3056   0.5155   0.2945     H
O      0.31014   0.6153  0.92102     O
O      0.31014  0.92102   0.6153     O
N      0.31163   0.2951  0.94044     N
N      0.31163  0.94044   0.2951     N
C      0.31325  0.33107  0.55623     C
C      0.31325  0.55623  0.33107     C
C       0.3142   0.6523   0.6523     C
C       0.3314    0.876    0.876     C
N      0.33169  0.43457  0.67905     N
N      0.33169  0.67905  0.43457     N
Cu     0.37733  0.50141  0.76113    Cu
Cu     0.37733  0.76113  0.50141    Cu
Cu     0.38846  0.00141  0.73887    Cu
Cu     0.38846  0.73887  0.00141    Cu
N      0.42372  0.39386   0.8385     N
N      0.42372   0.8385  0.39386     N
C      0.43691  0.61078   0.8718     C
C      0.43691   0.8718  0.61078     C
O        0.442   0.6089   0.6089     O
N      0.44531  0.32095  0.56543     N
N      0.44531  0.56543  0.32095     N
C      0.44586    0.245  0.94668     C
C      0.44586  0.94668    0.245     C
H       0.4554   0.1924   0.9816     H
H       0.4554   0.9816   0.1924     H
C       0.4574    0.376    0.624     C
C       0.4574    0.624    0.376     C
F      0.45952  0.21398  0.21398     F
O      0.46031  0.87109  0.87109     O
O      0.48116   0.1153  0.57898     O
O      0.48116  0.57898   0.1153     O
N      0.50207  0.55956   0.7951     N
N      0.50207   0.7951  0.55956     N
N      0.51222   0.6615  0.89386     N
N      0.51222  0.89386   0.6615     N
C        0.515   0.2575   0.2575     C
H       0.5284   0.1687   0.3595     H
H       0.5284   0.3595   0.1687     H
C      0.54468  0.22336  0.33668     C
C      0.54468  0.33668  0.22336     C
N      0.54717  0.05956   0.7049     N
N      0.54717   0.7049  0.05956     N
C       0.5548   0.3437   0.8467     C
C       0.5548   0.8467   0.3437     C
C      0.55871  0.11078   0.6282     C
C      0.55871   0.6282  0.11078     C
C       0.5665   0.2712   0.9022     C
C       0.5665   0.9022   0.2712     C
O       0.5814  0.37109  0.62891     O
O       0.5814  0.62891  0.37109     O
N       0.5957  0.26683  0.38077     N
N       0.5957  0.38077  0.26683     N
C       0.6188   0.3477   0.3477     C
H       0.6294   0.0184   0.8076     H
H       0.6294   0.8076   0.0184     H
C      0.63754  0.05332    0.755     C
C      0.63754    0.755  0.05332     C
H       0.6396    0.359   0.8134     H
H       0.6396   0.8134    0.359     H
Cu     0.63987  0.23887  0.49859    Cu
Cu     0.63987  0.49859  0.23887    Cu
C      0.64254  0.55332    0.745     C
C      0.64254    0.745  0.55332     C
C       0.6515   0.6533   0.8437     C
C       0.6515   0.8437   0.6533     C
N      0.65608   0.1615  0.60614     N
N      0.65608  0.60614   0.1615     N
O       0.6598   0.3911   0.3911     O
H        0.687   0.5184   0.6924     H
H        0.687   0.6924   0.5184     H
F      0.69954  0.22246  0.91166     F
F      0.69954  0.91166  0.22246     F
H        0.703   0.6866    0.859     H
H        0.703    0.859   0.6866     H
F       0.7114   0.0952   0.0952     F
C       0.7187   0.5978   0.7712     C
C       0.7187   0.7712   0.5978     C
C       0.7399   0.0978   0.7288     C
C       0.7399   0.7288   0.0978     C
C       0.7452   0.1533   0.6563     C
C       0.7452   0.6563   0.1533     C
H        0.812   0.1866    0.641     H
H        0.812    0.641   0.1866     H
C       0.8336   0.1057   0.1057     C
F      0.83366  0.08834  0.77754     F
F      0.83366  0.77754  0.08834     F
O      0.84646  0.07898   0.3847     O
O      0.84646   0.3847  0.07898     O
H       0.8501   0.0155   0.2055     H
H       0.8501   0.2055   0.0155     H
N      0.85673   0.2049  0.44044     N
N      0.85673  0.44044   0.2049     N
F       0.8612  0.58834  0.72246     F
F       0.8612  0.72246  0.58834     F
F      0.88748  0.78602  0.78602     F
C      0.89432  0.05623  0.16893     C
C      0.89432  0.16893  0.05623     C
H       0.8978   0.3076   0.4816     H
H       0.8978   0.4816   0.3076     H
F       0.9018   0.9048   0.9048     F
C      0.91949   0.1282  0.38922     C
C      0.91949  0.38922   0.1282     C
F       0.9235  0.28602  0.71398     F
F       0.9235  0.71398  0.28602     F
C      0.94086    0.255  0.44668     C
C      0.94086  0.44668    0.255     C
H       0.9471   0.3313   0.8595     H
H       0.9471   0.8595   0.3313     H
