data_I
_chemical_name_common  '/home/zhangsd/repos/MofS-CGCNN/ML/data/WS24/clean_cifs/KAVJEX'
_cell_length_a 26.86500
_cell_length_b 26.86500
_cell_length_c 26.86500
_cell_angle_alpha 90.00000
_cell_angle_beta  90.00000
_cell_angle_gamma 90.00000
_space_group_name_H-M_alt      'P 1'


loop_
_space_group_symop_operation_xyz
  'x, y, z' 

loop_
_atom_site_label
_atom_site_fract_x
_atom_site_fract_y
_atom_site_fract_z
_atom_site_type_symbol
Nd         0.0      0.0      0.0    Nd
Nd         0.0      0.0      0.5    Nd
Nd         0.0      0.5      0.0    Nd
Nd         0.0      0.5      0.5    Nd
O       0.0011   0.0834   0.5531     O
O       0.0011   0.4166   0.0531     O
O       0.0011   0.5834   0.4469     O
O       0.0011   0.9166   0.9469     O
C       0.0029   0.0648   0.2586     C
C       0.0029   0.4352   0.7586     C
C       0.0029   0.5648   0.7414     C
C       0.0029   0.9352   0.2414     C
C       0.0076   0.0514   0.8083     C
C       0.0076   0.4486   0.3083     C
C       0.0076   0.5514   0.1917     C
C       0.0076   0.9486   0.6917     C
C       0.0193   0.0232   0.3916     C
C       0.0193   0.4768   0.8916     C
C       0.0193   0.5232   0.6084     C
C       0.0193   0.9768   0.1084     C
O       0.0216   0.0302   0.9103     O
O       0.0216   0.4698   0.4103     O
O       0.0216   0.5302   0.0897     O
O       0.0216   0.9698   0.5897     O
C       0.0232   0.1084   0.5193     C
C       0.0232   0.3916   0.0193     C
C       0.0232   0.6084   0.4807     C
C       0.0232   0.8916   0.9807     C
O       0.0285   0.0834   0.1591     O
O       0.0285   0.4166   0.6591     O
O       0.0285   0.5834   0.8409     O
O       0.0285   0.9166   0.3409     O
O       0.0302   0.0897   0.4784     O
O       0.0302   0.4103   0.9784     O
O       0.0302   0.5897   0.5216     O
O       0.0302   0.9103   0.0216     O
C        0.031   0.0403   0.3405     C
C        0.031   0.4597   0.8405     C
C        0.031   0.5403   0.6595     C
C        0.031   0.9597   0.1595     C
H       0.0318   0.1548   0.4312     H
H       0.0318   0.3452   0.9312     H
H       0.0318   0.6548   0.5688     H
H       0.0318   0.8452   0.0688     H
H       0.0337   0.0905   0.7021     H
H       0.0337   0.4095   0.2021     H
H       0.0337   0.5905   0.2979     H
H       0.0337   0.9095   0.7979     H
H       0.0367   0.1541   0.6044     H
H       0.0367   0.3459   0.1044     H
H       0.0367   0.6541   0.3956     H
H       0.0367   0.8459   0.8956     H
N       0.0375   0.0786   0.7316     N
N       0.0375   0.4214   0.2316     N
N       0.0375   0.5786   0.2684     N
N       0.0375   0.9214   0.7684     N
C       0.0403   0.1595    0.531     C
C       0.0403   0.3405    0.031     C
C       0.0403   0.6595    0.469     C
C       0.0403   0.8405    0.969     C
C       0.0439   0.1761   0.5786     C
C       0.0439   0.3239   0.0786     C
C       0.0439   0.6761   0.4214     C
C       0.0439   0.8239   0.9214     C
N       0.0442   0.1827    0.441     N
N       0.0442   0.3173    0.941     N
N       0.0442   0.6827    0.559     N
N       0.0442   0.8173    0.059     N
C       0.0514   0.1917   0.4924     C
C       0.0514   0.3083   0.9924     C
C       0.0514   0.6917   0.5076     C
C       0.0514   0.8083   0.0076     C
C       0.0522    0.068   0.2428     C
H       0.0522    0.205   0.4195     H
H       0.0522    0.295   0.9195     H
C       0.0522    0.432   0.7428     C
C       0.0522    0.568   0.7572     C
H       0.0522    0.705   0.5805     H
H       0.0522    0.795   0.0805     H
C       0.0522    0.932   0.2572     C
O       0.0531   0.0011   0.4166     O
O       0.0531   0.4989   0.9166     O
O       0.0531   0.5011   0.5834     O
O       0.0531   0.9989   0.0834     O
H       0.0548   0.2117   0.6603     H
H       0.0548   0.2883   0.1603     H
H       0.0548   0.7117   0.3397     H
H       0.0548   0.7883   0.8397     H
C       0.0576   0.2239   0.5902     C
C       0.0576   0.2761   0.0902     C
C       0.0576   0.7239   0.4098     C
C       0.0576   0.7761   0.9098     C
N        0.059   0.0442   0.8173     N
N        0.059   0.4558   0.3173     N
N        0.059   0.5442   0.1827     N
N        0.059   0.9558   0.6827     N
N       0.0611   0.2343   0.6386     N
N       0.0611   0.2657   0.1386     N
N       0.0611   0.7343   0.3614     N
N       0.0611   0.7657   0.8614     N
C        0.064   0.0778   0.1888     C
C        0.064   0.4222   0.6888     C
C        0.064   0.5778   0.8112     C
C        0.064   0.9222   0.3112     C
C       0.0648   0.2414   0.5029     C
C       0.0648   0.2586   0.0029     C
C       0.0648   0.7414   0.4971     C
C       0.0648   0.7586   0.9971     C
H       0.0669   0.0755   0.7439     H
H       0.0669   0.4245   0.2439     H
H       0.0669   0.5755   0.2561     H
H       0.0669   0.9245   0.7561     H
C        0.068   0.2428   0.0522     C
C        0.068   0.2572   0.5522     C
C        0.068   0.7428   0.9478     C
C        0.068   0.7572   0.4478     C
H       0.0688   0.0318   0.8452     H
H       0.0688   0.4682   0.3452     H
H       0.0688   0.5318   0.1548     H
H       0.0688   0.9682   0.6548     H
H       0.0696   0.2363    0.148     H
H       0.0696   0.2637    0.648     H
H       0.0696   0.7363    0.852     H
H       0.0696   0.7637    0.352     H
H       0.0755   0.2439   0.9331     H
H       0.0755   0.2561   0.4331     H
H       0.0755   0.7439   0.0669     H
H       0.0755   0.7561   0.5669     H
C       0.0778   0.1888    0.064     C
C       0.0778   0.3112    0.564     C
C       0.0778   0.6888    0.936     C
C       0.0778   0.8112    0.436     C
C       0.0786   0.0439   0.3239     C
N       0.0786   0.2316   0.9625     N
N       0.0786   0.2684   0.4625     N
C       0.0786   0.4561   0.8239     C
C       0.0786   0.5439   0.6761     C
N       0.0786   0.7316   0.0375     N
N       0.0786   0.7684   0.5375     N
C       0.0786   0.9561   0.1761     C
O       0.0802   0.1743   0.1077     O
O       0.0802   0.3257   0.6077     O
O       0.0802   0.6743   0.8923     O
O       0.0802   0.8257   0.3923     O
H       0.0805   0.0522    0.795     H
H       0.0805   0.4478    0.295     H
H       0.0805   0.5522    0.205     H
H       0.0805   0.9478    0.705     H
O       0.0834   0.0531   0.9989     O
O       0.0834   0.1591   0.0285     O
O       0.0834   0.3409   0.5285     O
O       0.0834   0.4469   0.4989     O
O       0.0834   0.5531   0.0011     O
O       0.0834   0.6591   0.9715     O
O       0.0834   0.8409   0.4715     O
O       0.0834   0.9469   0.5011     O
Nd     0.08475  0.08475  0.08475    Nd
Nd     0.08475  0.41525  0.58475    Nd
Nd     0.08475  0.58475  0.91525    Nd
Nd     0.08475  0.91525  0.41525    Nd
O       0.0897   0.0216   0.5302     O
O       0.0897   0.4784   0.0302     O
O       0.0897   0.5216   0.4698     O
O       0.0897   0.9784   0.9698     O
C       0.0902   0.0576   0.2761     C
C       0.0902   0.4424   0.7761     C
C       0.0902   0.5576   0.7239     C
C       0.0902   0.9424   0.2239     C
H       0.0905   0.2021   0.9663     H
H       0.0905   0.2979   0.4663     H
H       0.0905   0.7021   0.0337     H
H       0.0905   0.7979   0.5337     H
H       0.1044   0.0367   0.3459     H
H       0.1044   0.4633   0.8459     H
H       0.1044   0.5367   0.6541     H
H       0.1044   0.9633   0.1541     H
O       0.1077   0.0802   0.1743     O
O       0.1077   0.4198   0.6743     O
O       0.1077   0.5802   0.8257     O
O       0.1077   0.9198   0.3257     O
C       0.1084   0.0193   0.9768     C
C       0.1084   0.4807   0.4768     C
C       0.1084   0.5193   0.0232     C
C       0.1084   0.9807   0.5232     C
N       0.1386   0.0611   0.2657     N
N       0.1386   0.4389   0.7657     N
N       0.1386   0.5611   0.7343     N
N       0.1386   0.9389   0.2343     N
H        0.148   0.0696   0.2363     H
H        0.148   0.4304   0.7363     H
H        0.148   0.5696   0.7637     H
H        0.148   0.9304   0.2637     H
H       0.1541   0.1044   0.9633     H
H       0.1541   0.3956   0.4633     H
H       0.1541   0.6044   0.0367     H
H       0.1541   0.8956   0.5367     H
H       0.1548   0.0688   0.5318     H
H       0.1548   0.4312   0.0318     H
H       0.1548   0.5688   0.4682     H
H       0.1548   0.9312   0.9682     H
O       0.1591   0.0285   0.0834     O
O       0.1591   0.4715   0.5834     O
O       0.1591   0.5285   0.9166     O
O       0.1591   0.9715   0.4166     O
C       0.1595    0.031   0.9597     C
C       0.1595    0.469   0.4597     C
C       0.1595    0.531   0.0403     C
C       0.1595    0.969   0.5403     C
H       0.1603   0.0548   0.2883     H
H       0.1603   0.4452   0.7883     H
H       0.1603   0.5548   0.7117     H
H       0.1603   0.9452   0.2117     H
O       0.1743   0.1077   0.0802     O
O       0.1743   0.3923   0.5802     O
O       0.1743   0.6077   0.9198     O
O       0.1743   0.8923   0.4198     O
C       0.1761   0.0786   0.9561     C
C       0.1761   0.4214   0.4561     C
C       0.1761   0.5786   0.0439     C
C       0.1761   0.9214   0.5439     C
N       0.1827    0.059   0.5442     N
N       0.1827    0.441   0.0442     N
N       0.1827    0.559   0.4558     N
N       0.1827    0.941   0.9558     N
C       0.1888    0.064   0.0778     C
C       0.1888    0.436   0.5778     C
C       0.1888    0.564   0.9222     C
C       0.1888    0.936   0.4222     C
C       0.1917   0.0076   0.5514     C
C       0.1917   0.4924   0.0514     C
C       0.1917   0.5076   0.4486     C
C       0.1917   0.9924   0.9486     C
H       0.2021   0.0337   0.4095     H
H       0.2021   0.4663   0.9095     H
H       0.2021   0.5337   0.5905     H
H       0.2021   0.9663   0.0905     H
H        0.205   0.0805   0.5522     H
H        0.205   0.4195   0.0522     H
H        0.205   0.5805   0.4478     H
H        0.205   0.9195   0.9478     H
H       0.2117   0.1603   0.9452     H
H       0.2117   0.3397   0.4452     H
H       0.2117   0.6603   0.0548     H
H       0.2117   0.8397   0.5548     H
C       0.2239   0.0902   0.9424     C
C       0.2239   0.4098   0.4424     C
C       0.2239   0.5902   0.0576     C
C       0.2239   0.9098   0.5576     C
N       0.2316   0.0375   0.4214     N
N       0.2316   0.4625   0.9214     N
N       0.2316   0.5375   0.5786     N
N       0.2316   0.9625   0.0786     N
N       0.2343   0.1386   0.9389     N
N       0.2343   0.3614   0.4389     N
N       0.2343   0.6386   0.0611     N
N       0.2343   0.8614   0.5611     N
H       0.2363    0.148   0.0696     H
H       0.2363    0.352   0.5696     H
H       0.2363    0.648   0.9304     H
H       0.2363    0.852   0.4304     H
C       0.2414   0.0029   0.9352     C
C       0.2414   0.4971   0.4352     C
C       0.2414   0.5029   0.0648     C
C       0.2414   0.9971   0.5648     C
C       0.2428   0.0522    0.068     C
C       0.2428   0.4478    0.568     C
C       0.2428   0.5522    0.932     C
C       0.2428   0.9478    0.432     C
H       0.2439   0.0669   0.4245     H
H       0.2439   0.4331   0.9245     H
H       0.2439   0.5669   0.5755     H
H       0.2439   0.9331   0.0755     H
H       0.2561   0.0669   0.5755     H
H       0.2561   0.4331   0.0755     H
H       0.2561   0.5669   0.4245     H
H       0.2561   0.9331   0.9245     H
C       0.2572   0.0522    0.932     C
C       0.2572   0.4478    0.432     C
C       0.2572   0.5522    0.068     C
C       0.2572   0.9478    0.568     C
C       0.2586   0.0029   0.0648     C
C       0.2586   0.4971   0.5648     C
C       0.2586   0.5029   0.9352     C
C       0.2586   0.9971   0.4352     C
H       0.2637    0.148   0.9304     H
H       0.2637    0.352   0.4304     H
H       0.2637    0.648   0.0696     H
H       0.2637    0.852   0.5696     H
N       0.2657   0.1386   0.0611     N
N       0.2657   0.3614   0.5611     N
N       0.2657   0.6386   0.9389     N
N       0.2657   0.8614   0.4389     N
N       0.2684   0.0375   0.5786     N
N       0.2684   0.4625   0.0786     N
N       0.2684   0.5375   0.4214     N
N       0.2684   0.9625   0.9214     N
C       0.2761   0.0902   0.0576     C
C       0.2761   0.4098   0.5576     C
C       0.2761   0.5902   0.9424     C
C       0.2761   0.9098   0.4424     C
H       0.2883   0.1603   0.0548     H
H       0.2883   0.3397   0.5548     H
H       0.2883   0.6603   0.9452     H
H       0.2883   0.8397   0.4452     H
H        0.295   0.0805   0.4478     H
H        0.295   0.4195   0.9478     H
H        0.295   0.5805   0.5522     H
H        0.295   0.9195   0.0522     H
H       0.2979   0.0337   0.5905     H
H       0.2979   0.4663   0.0905     H
H       0.2979   0.5337   0.4095     H
H       0.2979   0.9663   0.9095     H
C       0.3083   0.0076   0.4486     C
C       0.3083   0.4924   0.9486     C
C       0.3083   0.5076   0.5514     C
C       0.3083   0.9924   0.0514     C
C       0.3112    0.064   0.9222     C
C       0.3112    0.436   0.4222     C
C       0.3112    0.564   0.0778     C
C       0.3112    0.936   0.5778     C
N       0.3173    0.059   0.4558     N
N       0.3173    0.441   0.9558     N
N       0.3173    0.559   0.5442     N
N       0.3173    0.941   0.0442     N
C       0.3239   0.0786   0.0439     C
C       0.3239   0.4214   0.5439     C
C       0.3239   0.5786   0.9561     C
C       0.3239   0.9214   0.4561     C
O       0.3257   0.1077   0.9198     O
O       0.3257   0.3923   0.4198     O
O       0.3257   0.6077   0.0802     O
O       0.3257   0.8923   0.5802     O
H       0.3397   0.0548   0.7117     H
H       0.3397   0.4452   0.2117     H
H       0.3397   0.5548   0.2883     H
H       0.3397   0.9452   0.7883     H
C       0.3405    0.031   0.0403     C
C       0.3405    0.469   0.5403     C
C       0.3405    0.531   0.9597     C
C       0.3405    0.969   0.4597     C
O       0.3409   0.0285   0.9166     O
O       0.3409   0.4715   0.4166     O
O       0.3409   0.5285   0.0834     O
O       0.3409   0.9715   0.5834     O
H       0.3452   0.0688   0.4682     H
H       0.3452   0.4312   0.9682     H
H       0.3452   0.5688   0.5318     H
H       0.3452   0.9312   0.0318     H
H       0.3459   0.1044   0.0367     H
H       0.3459   0.3956   0.5367     H
H       0.3459   0.6044   0.9633     H
H       0.3459   0.8956   0.4633     H
H        0.352   0.0696   0.7637     H
H        0.352   0.4304   0.2637     H
H        0.352   0.5696   0.2363     H
H        0.352   0.9304   0.7363     H
N       0.3614   0.0611   0.7343     N
N       0.3614   0.4389   0.2343     N
N       0.3614   0.5611   0.2657     N
N       0.3614   0.9389   0.7657     N
C       0.3916   0.0193   0.0232     C
C       0.3916   0.4807   0.5232     C
C       0.3916   0.5193   0.9768     C
C       0.3916   0.9807   0.4768     C
O       0.3923   0.0802   0.8257     O
O       0.3923   0.4198   0.3257     O
O       0.3923   0.5802   0.1743     O
O       0.3923   0.9198   0.6743     O
H       0.3956   0.0367   0.6541     H
H       0.3956   0.4633   0.1541     H
H       0.3956   0.5367   0.3459     H
H       0.3956   0.9633   0.8459     H
H       0.4095   0.2021   0.0337     H
H       0.4095   0.2979   0.5337     H
H       0.4095   0.7021   0.9663     H
H       0.4095   0.7979   0.4663     H
C       0.4098   0.0576   0.7239     C
C       0.4098   0.4424   0.2239     C
C       0.4098   0.5576   0.2761     C
C       0.4098   0.9424   0.7761     C
O       0.4103   0.0216   0.4698     O
O       0.4103   0.4784   0.9698     O
O       0.4103   0.5216   0.5302     O
O       0.4103   0.9784   0.0302     O
Nd     0.41525  0.08475  0.91525    Nd
Nd     0.41525  0.41525  0.41525    Nd
Nd     0.41525  0.58475  0.08475    Nd
Nd     0.41525  0.91525  0.58475    Nd
O       0.4166   0.0531   0.0011     O
O       0.4166   0.1591   0.9715     O
O       0.4166   0.3409   0.4715     O
O       0.4166   0.4469   0.5011     O
O       0.4166   0.5531   0.9989     O
O       0.4166   0.6591   0.0285     O
O       0.4166   0.8409   0.5285     O
O       0.4166   0.9469   0.4989     O
H       0.4195   0.0522    0.205     H
H       0.4195   0.4478    0.705     H
H       0.4195   0.5522    0.795     H
H       0.4195   0.9478    0.295     H
O       0.4198   0.1743   0.8923     O
O       0.4198   0.3257   0.3923     O
O       0.4198   0.6743   0.1077     O
O       0.4198   0.8257   0.6077     O
C       0.4214   0.0439   0.6761     C
N       0.4214   0.2316   0.0375     N
N       0.4214   0.2684   0.5375     N
C       0.4214   0.4561   0.1761     C
C       0.4214   0.5439   0.3239     C
N       0.4214   0.7316   0.9625     N
N       0.4214   0.7684   0.4625     N
C       0.4214   0.9561   0.8239     C
C       0.4222   0.1888    0.936     C
C       0.4222   0.3112    0.436     C
C       0.4222   0.6888    0.064     C
C       0.4222   0.8112    0.564     C
H       0.4245   0.2439   0.0669     H
H       0.4245   0.2561   0.5669     H
H       0.4245   0.7439   0.9331     H
H       0.4245   0.7561   0.4331     H
H       0.4304   0.2363    0.852     H
H       0.4304   0.2637    0.352     H
H       0.4304   0.7363    0.148     H
H       0.4304   0.7637    0.648     H
H       0.4312   0.0318   0.1548     H
H       0.4312   0.4682   0.6548     H
H       0.4312   0.5318   0.8452     H
H       0.4312   0.9682   0.3452     H
C        0.432   0.2428   0.9478     C
C        0.432   0.2572   0.4478     C
C        0.432   0.7428   0.0522     C
C        0.432   0.7572   0.5522     C
H       0.4331   0.0755   0.2561     H
H       0.4331   0.4245   0.7561     H
H       0.4331   0.5755   0.7439     H
H       0.4331   0.9245   0.2439     H
C       0.4352   0.2414   0.4971     C
C       0.4352   0.2586   0.9971     C
C       0.4352   0.7414   0.5029     C
C       0.4352   0.7586   0.0029     C
C        0.436   0.0778   0.8112     C
C        0.436   0.4222   0.3112     C
C        0.436   0.5778   0.1888     C
C        0.436   0.9222   0.6888     C
N       0.4389   0.2343   0.3614     N
N       0.4389   0.2657   0.8614     N
N       0.4389   0.7343   0.6386     N
N       0.4389   0.7657   0.1386     N
N        0.441   0.0442   0.1827     N
N        0.441   0.4558   0.6827     N
N        0.441   0.5442   0.8173     N
N        0.441   0.9558   0.3173     N
C       0.4424   0.2239   0.4098     C
C       0.4424   0.2761   0.9098     C
C       0.4424   0.7239   0.5902     C
C       0.4424   0.7761   0.0902     C
H       0.4452   0.2117   0.3397     H
H       0.4452   0.2883   0.8397     H
H       0.4452   0.7117   0.6603     H
H       0.4452   0.7883   0.1603     H
O       0.4469   0.0011   0.5834     O
O       0.4469   0.4989   0.0834     O
O       0.4469   0.5011   0.4166     O
O       0.4469   0.9989   0.9166     O
C       0.4478    0.068   0.7572     C
H       0.4478    0.205   0.5805     H
H       0.4478    0.295   0.0805     H
C       0.4478    0.432   0.2572     C
C       0.4478    0.568   0.2428     C
H       0.4478    0.705   0.4195     H
H       0.4478    0.795   0.9195     H
C       0.4478    0.932   0.7428     C
C       0.4486   0.1917   0.5076     C
C       0.4486   0.3083   0.0076     C
C       0.4486   0.6917   0.4924     C
C       0.4486   0.8083   0.9924     C
N       0.4558   0.1827    0.559     N
N       0.4558   0.3173    0.059     N
N       0.4558   0.6827    0.441     N
N       0.4558   0.8173    0.941     N
C       0.4561   0.1761   0.4214     C
C       0.4561   0.3239   0.9214     C
C       0.4561   0.6761   0.5786     C
C       0.4561   0.8239   0.0786     C
C       0.4597   0.1595    0.469     C
C       0.4597   0.3405    0.969     C
C       0.4597   0.6595    0.531     C
C       0.4597   0.8405    0.031     C
N       0.4625   0.0786   0.2684     N
N       0.4625   0.4214   0.7684     N
N       0.4625   0.5786   0.7316     N
N       0.4625   0.9214   0.2316     N
H       0.4633   0.1541   0.3956     H
H       0.4633   0.3459   0.8956     H
H       0.4633   0.6541   0.6044     H
H       0.4633   0.8459   0.1044     H
H       0.4663   0.0905   0.2979     H
H       0.4663   0.4095   0.7979     H
H       0.4663   0.5905   0.7021     H
H       0.4663   0.9095   0.2021     H
H       0.4682   0.1548   0.5688     H
H       0.4682   0.3452   0.0688     H
H       0.4682   0.6548   0.4312     H
H       0.4682   0.8452   0.9312     H
C        0.469   0.0403   0.6595     C
C        0.469   0.4597   0.1595     C
C        0.469   0.5403   0.3405     C
C        0.469   0.9597   0.8405     C
O       0.4698   0.0897   0.5216     O
O       0.4698   0.4103   0.0216     O
O       0.4698   0.5897   0.4784     O
O       0.4698   0.9103   0.9784     O
O       0.4715   0.0834   0.8409     O
O       0.4715   0.4166   0.3409     O
O       0.4715   0.5834   0.1591     O
O       0.4715   0.9166   0.6591     O
C       0.4768   0.1084   0.4807     C
C       0.4768   0.3916   0.9807     C
C       0.4768   0.6084   0.5193     C
C       0.4768   0.8916   0.0193     C
O       0.4784   0.0302   0.0897     O
O       0.4784   0.4698   0.5897     O
O       0.4784   0.5302   0.9103     O
O       0.4784   0.9698   0.4103     O
C       0.4807   0.0232   0.6084     C
C       0.4807   0.4768   0.1084     C
C       0.4807   0.5232   0.3916     C
C       0.4807   0.9768   0.8916     C
C       0.4924   0.0514   0.1917     C
C       0.4924   0.4486   0.6917     C
C       0.4924   0.5514   0.8083     C
C       0.4924   0.9486   0.3083     C
C       0.4971   0.0648   0.7414     C
C       0.4971   0.4352   0.2414     C
C       0.4971   0.5648   0.2586     C
C       0.4971   0.9352   0.7586     C
O       0.4989   0.0834   0.4469     O
O       0.4989   0.4166   0.9469     O
O       0.4989   0.5834   0.5531     O
O       0.4989   0.9166   0.0531     O
Nd         0.5      0.0      0.0    Nd
Nd         0.5      0.0      0.5    Nd
Nd         0.5      0.5      0.0    Nd
Nd         0.5      0.5      0.5    Nd
O       0.5011   0.0834   0.9469     O
O       0.5011   0.4166   0.4469     O
O       0.5011   0.5834   0.0531     O
O       0.5011   0.9166   0.5531     O
C       0.5029   0.0648   0.2414     C
C       0.5029   0.4352   0.7414     C
C       0.5029   0.5648   0.7586     C
C       0.5029   0.9352   0.2586     C
C       0.5076   0.0514   0.6917     C
C       0.5076   0.4486   0.1917     C
C       0.5076   0.5514   0.3083     C
C       0.5076   0.9486   0.8083     C
C       0.5193   0.0232   0.1084     C
C       0.5193   0.4768   0.6084     C
C       0.5193   0.5232   0.8916     C
C       0.5193   0.9768   0.3916     C
O       0.5216   0.0302   0.5897     O
O       0.5216   0.4698   0.0897     O
O       0.5216   0.5302   0.4103     O
O       0.5216   0.9698   0.9103     O
C       0.5232   0.1084   0.9807     C
C       0.5232   0.3916   0.4807     C
C       0.5232   0.6084   0.0193     C
C       0.5232   0.8916   0.5193     C
O       0.5285   0.0834   0.3409     O
O       0.5285   0.4166   0.8409     O
O       0.5285   0.5834   0.6591     O
O       0.5285   0.9166   0.1591     O
O       0.5302   0.0897   0.0216     O
O       0.5302   0.4103   0.5216     O
O       0.5302   0.5897   0.9784     O
O       0.5302   0.9103   0.4784     O
C        0.531   0.0403   0.1595     C
C        0.531   0.4597   0.6595     C
C        0.531   0.5403   0.8405     C
C        0.531   0.9597   0.3405     C
H       0.5318   0.1548   0.0688     H
H       0.5318   0.3452   0.5688     H
H       0.5318   0.6548   0.9312     H
H       0.5318   0.8452   0.4312     H
H       0.5337   0.0905   0.7979     H
H       0.5337   0.4095   0.2979     H
H       0.5337   0.5905   0.2021     H
H       0.5337   0.9095   0.7021     H
H       0.5367   0.1541   0.8956     H
H       0.5367   0.3459   0.3956     H
H       0.5367   0.6541   0.1044     H
H       0.5367   0.8459   0.6044     H
N       0.5375   0.0786   0.7684     N
N       0.5375   0.4214   0.2684     N
N       0.5375   0.5786   0.2316     N
N       0.5375   0.9214   0.7316     N
C       0.5403   0.1595    0.969     C
C       0.5403   0.3405    0.469     C
C       0.5403   0.6595    0.031     C
C       0.5403   0.8405    0.531     C
C       0.5439   0.1761   0.9214     C
C       0.5439   0.3239   0.4214     C
C       0.5439   0.6761   0.0786     C
C       0.5439   0.8239   0.5786     C
N       0.5442   0.1827    0.059     N
N       0.5442   0.3173    0.559     N
N       0.5442   0.6827    0.941     N
N       0.5442   0.8173    0.441     N
C       0.5514   0.1917   0.0076     C
C       0.5514   0.3083   0.5076     C
C       0.5514   0.6917   0.9924     C
C       0.5514   0.8083   0.4924     C
C       0.5522    0.068   0.2572     C
H       0.5522    0.205   0.0805     H
H       0.5522    0.295   0.5805     H
C       0.5522    0.432   0.7572     C
C       0.5522    0.568   0.7428     C
H       0.5522    0.705   0.9195     H
H       0.5522    0.795   0.4195     H
C       0.5522    0.932   0.2428     C
O       0.5531   0.0011   0.0834     O
O       0.5531   0.4989   0.5834     O
O       0.5531   0.5011   0.9166     O
O       0.5531   0.9989   0.4166     O
H       0.5548   0.2117   0.8397     H
H       0.5548   0.2883   0.3397     H
H       0.5548   0.7117   0.1603     H
H       0.5548   0.7883   0.6603     H
C       0.5576   0.2239   0.9098     C
C       0.5576   0.2761   0.4098     C
C       0.5576   0.7239   0.0902     C
C       0.5576   0.7761   0.5902     C
N        0.559   0.0442   0.6827     N
N        0.559   0.4558   0.1827     N
N        0.559   0.5442   0.3173     N
N        0.559   0.9558   0.8173     N
N       0.5611   0.2343   0.8614     N
N       0.5611   0.2657   0.3614     N
N       0.5611   0.7343   0.1386     N
N       0.5611   0.7657   0.6386     N
C        0.564   0.0778   0.3112     C
C        0.564   0.4222   0.8112     C
C        0.564   0.5778   0.6888     C
C        0.564   0.9222   0.1888     C
C       0.5648   0.2414   0.9971     C
C       0.5648   0.2586   0.4971     C
C       0.5648   0.7414   0.0029     C
C       0.5648   0.7586   0.5029     C
H       0.5669   0.0755   0.7561     H
H       0.5669   0.4245   0.2561     H
H       0.5669   0.5755   0.2439     H
H       0.5669   0.9245   0.7439     H
C        0.568   0.2428   0.4478     C
C        0.568   0.2572   0.9478     C
C        0.568   0.7428   0.5522     C
C        0.568   0.7572   0.0522     C
H       0.5688   0.0318   0.6548     H
H       0.5688   0.4682   0.1548     H
H       0.5688   0.5318   0.3452     H
H       0.5688   0.9682   0.8452     H
H       0.5696   0.2363    0.352     H
H       0.5696   0.2637    0.852     H
H       0.5696   0.7363    0.648     H
H       0.5696   0.7637    0.148     H
H       0.5755   0.2439   0.5669     H
H       0.5755   0.2561   0.0669     H
H       0.5755   0.7439   0.4331     H
H       0.5755   0.7561   0.9331     H
C       0.5778   0.1888    0.436     C
C       0.5778   0.3112    0.936     C
C       0.5778   0.6888    0.564     C
C       0.5778   0.8112    0.064     C
C       0.5786   0.0439   0.1761     C
N       0.5786   0.2316   0.5375     N
N       0.5786   0.2684   0.0375     N
C       0.5786   0.4561   0.6761     C
C       0.5786   0.5439   0.8239     C
N       0.5786   0.7316   0.4625     N
N       0.5786   0.7684   0.9625     N
C       0.5786   0.9561   0.3239     C
O       0.5802   0.1743   0.3923     O
O       0.5802   0.3257   0.8923     O
O       0.5802   0.6743   0.6077     O
O       0.5802   0.8257   0.1077     O
H       0.5805   0.0522    0.705     H
H       0.5805   0.4478    0.205     H
H       0.5805   0.5522    0.295     H
H       0.5805   0.9478    0.795     H
O       0.5834   0.0531   0.5011     O
O       0.5834   0.1591   0.4715     O
O       0.5834   0.3409   0.9715     O
O       0.5834   0.4469   0.0011     O
O       0.5834   0.5531   0.4989     O
O       0.5834   0.6591   0.5285     O
O       0.5834   0.8409   0.0285     O
O       0.5834   0.9469   0.9989     O
Nd     0.58475  0.08475  0.41525    Nd
Nd     0.58475  0.41525  0.91525    Nd
Nd     0.58475  0.58475  0.58475    Nd
Nd     0.58475  0.91525  0.08475    Nd
O       0.5897   0.0216   0.9698     O
O       0.5897   0.4784   0.4698     O
O       0.5897   0.5216   0.0302     O
O       0.5897   0.9784   0.5302     O
C       0.5902   0.0576   0.2239     C
C       0.5902   0.4424   0.7239     C
C       0.5902   0.5576   0.7761     C
C       0.5902   0.9424   0.2761     C
H       0.5905   0.2021   0.5337     H
H       0.5905   0.2979   0.0337     H
H       0.5905   0.7021   0.4663     H
H       0.5905   0.7979   0.9663     H
H       0.6044   0.0367   0.1541     H
H       0.6044   0.4633   0.6541     H
H       0.6044   0.5367   0.8459     H
H       0.6044   0.9633   0.3459     H
O       0.6077   0.0802   0.3257     O
O       0.6077   0.4198   0.8257     O
O       0.6077   0.5802   0.6743     O
O       0.6077   0.9198   0.1743     O
C       0.6084   0.0193   0.5232     C
C       0.6084   0.4807   0.0232     C
C       0.6084   0.5193   0.4768     C
C       0.6084   0.9807   0.9768     C
N       0.6386   0.0611   0.2343     N
N       0.6386   0.4389   0.7343     N
N       0.6386   0.5611   0.7657     N
N       0.6386   0.9389   0.2657     N
H        0.648   0.0696   0.2637     H
H        0.648   0.4304   0.7637     H
H        0.648   0.5696   0.7363     H
H        0.648   0.9304   0.2363     H
H       0.6541   0.1044   0.5367     H
H       0.6541   0.3956   0.0367     H
H       0.6541   0.6044   0.4633     H
H       0.6541   0.8956   0.9633     H
H       0.6548   0.0688   0.9682     H
H       0.6548   0.4312   0.4682     H
H       0.6548   0.5688   0.0318     H
H       0.6548   0.9312   0.5318     H
O       0.6591   0.0285   0.4166     O
O       0.6591   0.4715   0.9166     O
O       0.6591   0.5285   0.5834     O
O       0.6591   0.9715   0.0834     O
C       0.6595    0.031   0.5403     C
C       0.6595    0.469   0.0403     C
C       0.6595    0.531   0.4597     C
C       0.6595    0.969   0.9597     C
H       0.6603   0.0548   0.2117     H
H       0.6603   0.4452   0.7117     H
H       0.6603   0.5548   0.7883     H
H       0.6603   0.9452   0.2883     H
O       0.6743   0.1077   0.4198     O
O       0.6743   0.3923   0.9198     O
O       0.6743   0.6077   0.5802     O
O       0.6743   0.8923   0.0802     O
C       0.6761   0.0786   0.5439     C
C       0.6761   0.4214   0.0439     C
C       0.6761   0.5786   0.4561     C
C       0.6761   0.9214   0.9561     C
N       0.6827    0.059   0.9558     N
N       0.6827    0.441   0.4558     N
N       0.6827    0.559   0.0442     N
N       0.6827    0.941   0.5442     N
C       0.6888    0.064   0.4222     C
C       0.6888    0.436   0.9222     C
C       0.6888    0.564   0.5778     C
C       0.6888    0.936   0.0778     C
C       0.6917   0.0076   0.9486     C
C       0.6917   0.4924   0.4486     C
C       0.6917   0.5076   0.0514     C
C       0.6917   0.9924   0.5514     C
H       0.7021   0.0337   0.0905     H
H       0.7021   0.4663   0.5905     H
H       0.7021   0.5337   0.9095     H
H       0.7021   0.9663   0.4095     H
H        0.705   0.0805   0.9478     H
H        0.705   0.4195   0.4478     H
H        0.705   0.5805   0.0522     H
H        0.705   0.9195   0.5522     H
H       0.7117   0.1603   0.5548     H
H       0.7117   0.3397   0.0548     H
H       0.7117   0.6603   0.4452     H
H       0.7117   0.8397   0.9452     H
C       0.7239   0.0902   0.5576     C
C       0.7239   0.4098   0.0576     C
C       0.7239   0.5902   0.4424     C
C       0.7239   0.9098   0.9424     C
N       0.7316   0.0375   0.0786     N
N       0.7316   0.4625   0.5786     N
N       0.7316   0.5375   0.9214     N
N       0.7316   0.9625   0.4214     N
N       0.7343   0.1386   0.5611     N
N       0.7343   0.3614   0.0611     N
N       0.7343   0.6386   0.4389     N
N       0.7343   0.8614   0.9389     N
H       0.7363    0.148   0.4304     H
H       0.7363    0.352   0.9304     H
H       0.7363    0.648   0.5696     H
H       0.7363    0.852   0.0696     H
C       0.7414   0.0029   0.5648     C
C       0.7414   0.4971   0.0648     C
C       0.7414   0.5029   0.4352     C
C       0.7414   0.9971   0.9352     C
C       0.7428   0.0522    0.432     C
C       0.7428   0.4478    0.932     C
C       0.7428   0.5522    0.568     C
C       0.7428   0.9478    0.068     C
H       0.7439   0.0669   0.0755     H
H       0.7439   0.4331   0.5755     H
H       0.7439   0.5669   0.9245     H
H       0.7439   0.9331   0.4245     H
H       0.7561   0.0669   0.9245     H
H       0.7561   0.4331   0.4245     H
H       0.7561   0.5669   0.0755     H
H       0.7561   0.9331   0.5755     H
C       0.7572   0.0522    0.568     C
C       0.7572   0.4478    0.068     C
C       0.7572   0.5522    0.432     C
C       0.7572   0.9478    0.932     C
C       0.7586   0.0029   0.4352     C
C       0.7586   0.4971   0.9352     C
C       0.7586   0.5029   0.5648     C
C       0.7586   0.9971   0.0648     C
H       0.7637    0.148   0.5696     H
H       0.7637    0.352   0.0696     H
H       0.7637    0.648   0.4304     H
H       0.7637    0.852   0.9304     H
N       0.7657   0.1386   0.4389     N
N       0.7657   0.3614   0.9389     N
N       0.7657   0.6386   0.5611     N
N       0.7657   0.8614   0.0611     N
N       0.7684   0.0375   0.9214     N
N       0.7684   0.4625   0.4214     N
N       0.7684   0.5375   0.0786     N
N       0.7684   0.9625   0.5786     N
C       0.7761   0.0902   0.4424     C
C       0.7761   0.4098   0.9424     C
C       0.7761   0.5902   0.5576     C
C       0.7761   0.9098   0.0576     C
H       0.7883   0.1603   0.4452     H
H       0.7883   0.3397   0.9452     H
H       0.7883   0.6603   0.5548     H
H       0.7883   0.8397   0.0548     H
H        0.795   0.0805   0.0522     H
H        0.795   0.4195   0.5522     H
H        0.795   0.5805   0.9478     H
H        0.795   0.9195   0.4478     H
H       0.7979   0.0337   0.9095     H
H       0.7979   0.4663   0.4095     H
H       0.7979   0.5337   0.0905     H
H       0.7979   0.9663   0.5905     H
C       0.8083   0.0076   0.0514     C
C       0.8083   0.4924   0.5514     C
C       0.8083   0.5076   0.9486     C
C       0.8083   0.9924   0.4486     C
C       0.8112    0.064   0.5778     C
C       0.8112    0.436   0.0778     C
C       0.8112    0.564   0.4222     C
C       0.8112    0.936   0.9222     C
N       0.8173    0.059   0.0442     N
N       0.8173    0.441   0.5442     N
N       0.8173    0.559   0.9558     N
N       0.8173    0.941   0.4558     N
C       0.8239   0.0786   0.4561     C
C       0.8239   0.4214   0.9561     C
C       0.8239   0.5786   0.5439     C
C       0.8239   0.9214   0.0439     C
O       0.8257   0.1077   0.5802     O
O       0.8257   0.3923   0.0802     O
O       0.8257   0.6077   0.4198     O
O       0.8257   0.8923   0.9198     O
H       0.8397   0.0548   0.7883     H
H       0.8397   0.4452   0.2883     H
H       0.8397   0.5548   0.2117     H
H       0.8397   0.9452   0.7117     H
C       0.8405    0.031   0.4597     C
C       0.8405    0.469   0.9597     C
C       0.8405    0.531   0.5403     C
C       0.8405    0.969   0.0403     C
O       0.8409   0.0285   0.5834     O
O       0.8409   0.4715   0.0834     O
O       0.8409   0.5285   0.4166     O
O       0.8409   0.9715   0.9166     O
H       0.8452   0.0688   0.0318     H
H       0.8452   0.4312   0.5318     H
H       0.8452   0.5688   0.9682     H
H       0.8452   0.9312   0.4682     H
H       0.8459   0.1044   0.4633     H
H       0.8459   0.3956   0.9633     H
H       0.8459   0.6044   0.5367     H
H       0.8459   0.8956   0.0367     H
H        0.852   0.0696   0.7363     H
H        0.852   0.4304   0.2363     H
H        0.852   0.5696   0.2637     H
H        0.852   0.9304   0.7637     H
N       0.8614   0.0611   0.7657     N
N       0.8614   0.4389   0.2657     N
N       0.8614   0.5611   0.2343     N
N       0.8614   0.9389   0.7343     N
C       0.8916   0.0193   0.4768     C
C       0.8916   0.4807   0.9768     C
C       0.8916   0.5193   0.5232     C
C       0.8916   0.9807   0.0232     C
O       0.8923   0.0802   0.6743     O
O       0.8923   0.4198   0.1743     O
O       0.8923   0.5802   0.3257     O
O       0.8923   0.9198   0.8257     O
H       0.8956   0.0367   0.8459     H
H       0.8956   0.4633   0.3459     H
H       0.8956   0.5367   0.1541     H
H       0.8956   0.9633   0.6541     H
H       0.9095   0.2021   0.4663     H
H       0.9095   0.2979   0.9663     H
H       0.9095   0.7021   0.5337     H
H       0.9095   0.7979   0.0337     H
C       0.9098   0.0576   0.7761     C
C       0.9098   0.4424   0.2761     C
C       0.9098   0.5576   0.2239     C
C       0.9098   0.9424   0.7239     C
O       0.9103   0.0216   0.0302     O
O       0.9103   0.4784   0.5302     O
O       0.9103   0.5216   0.9698     O
O       0.9103   0.9784   0.4698     O
Nd     0.91525  0.08475  0.58475    Nd
Nd     0.91525  0.41525  0.08475    Nd
Nd     0.91525  0.58475  0.41525    Nd
Nd     0.91525  0.91525  0.91525    Nd
O       0.9166   0.0531   0.4989     O
O       0.9166   0.1591   0.5285     O
O       0.9166   0.3409   0.0285     O
O       0.9166   0.4469   0.9989     O
O       0.9166   0.5531   0.5011     O
O       0.9166   0.6591   0.4715     O
O       0.9166   0.8409   0.9715     O
O       0.9166   0.9469   0.0011     O
H       0.9195   0.0522    0.295     H
H       0.9195   0.4478    0.795     H
H       0.9195   0.5522    0.705     H
H       0.9195   0.9478    0.205     H
O       0.9198   0.1743   0.6077     O
O       0.9198   0.3257   0.1077     O
O       0.9198   0.6743   0.3923     O
O       0.9198   0.8257   0.8923     O
C       0.9214   0.0439   0.8239     C
N       0.9214   0.2316   0.4625     N
N       0.9214   0.2684   0.9625     N
C       0.9214   0.4561   0.3239     C
C       0.9214   0.5439   0.1761     C
N       0.9214   0.7316   0.5375     N
N       0.9214   0.7684   0.0375     N
C       0.9214   0.9561   0.6761     C
C       0.9222   0.1888    0.564     C
C       0.9222   0.3112    0.064     C
C       0.9222   0.6888    0.436     C
C       0.9222   0.8112    0.936     C
H       0.9245   0.2439   0.4331     H
H       0.9245   0.2561   0.9331     H
H       0.9245   0.7439   0.5669     H
H       0.9245   0.7561   0.0669     H
H       0.9304   0.2363    0.648     H
H       0.9304   0.2637    0.148     H
H       0.9304   0.7363    0.352     H
H       0.9304   0.7637    0.852     H
H       0.9312   0.0318   0.3452     H
H       0.9312   0.4682   0.8452     H
H       0.9312   0.5318   0.6548     H
H       0.9312   0.9682   0.1548     H
C        0.932   0.2428   0.5522     C
C        0.932   0.2572   0.0522     C
C        0.932   0.7428   0.4478     C
C        0.932   0.7572   0.9478     C
H       0.9331   0.0755   0.2439     H
H       0.9331   0.4245   0.7439     H
H       0.9331   0.5755   0.7561     H
H       0.9331   0.9245   0.2561     H
C       0.9352   0.2414   0.0029     C
C       0.9352   0.2586   0.5029     C
C       0.9352   0.7414   0.9971     C
C       0.9352   0.7586   0.4971     C
C        0.936   0.0778   0.6888     C
C        0.936   0.4222   0.1888     C
C        0.936   0.5778   0.3112     C
C        0.936   0.9222   0.8112     C
N       0.9389   0.2343   0.1386     N
N       0.9389   0.2657   0.6386     N
N       0.9389   0.7343   0.8614     N
N       0.9389   0.7657   0.3614     N
N        0.941   0.0442   0.3173     N
N        0.941   0.4558   0.8173     N
N        0.941   0.5442   0.6827     N
N        0.941   0.9558   0.1827     N
C       0.9424   0.2239   0.0902     C
C       0.9424   0.2761   0.5902     C
C       0.9424   0.7239   0.9098     C
C       0.9424   0.7761   0.4098     C
H       0.9452   0.2117   0.1603     H
H       0.9452   0.2883   0.6603     H
H       0.9452   0.7117   0.8397     H
H       0.9452   0.7883   0.3397     H
O       0.9469   0.0011   0.9166     O
O       0.9469   0.4989   0.4166     O
O       0.9469   0.5011   0.0834     O
O       0.9469   0.9989   0.5834     O
C       0.9478    0.068   0.7428     C
H       0.9478    0.205   0.9195     H
H       0.9478    0.295   0.4195     H
C       0.9478    0.432   0.2428     C
C       0.9478    0.568   0.2572     C
H       0.9478    0.705   0.0805     H
H       0.9478    0.795   0.5805     H
C       0.9478    0.932   0.7572     C
C       0.9486   0.1917   0.9924     C
C       0.9486   0.3083   0.4924     C
C       0.9486   0.6917   0.0076     C
C       0.9486   0.8083   0.5076     C
N       0.9558   0.1827    0.941     N
N       0.9558   0.3173    0.441     N
N       0.9558   0.6827    0.059     N
N       0.9558   0.8173    0.559     N
C       0.9561   0.1761   0.0786     C
C       0.9561   0.3239   0.5786     C
C       0.9561   0.6761   0.9214     C
C       0.9561   0.8239   0.4214     C
C       0.9597   0.1595    0.031     C
C       0.9597   0.3405    0.531     C
C       0.9597   0.6595    0.969     C
C       0.9597   0.8405    0.469     C
N       0.9625   0.0786   0.2316     N
N       0.9625   0.4214   0.7316     N
N       0.9625   0.5786   0.7684     N
N       0.9625   0.9214   0.2684     N
H       0.9633   0.1541   0.1044     H
H       0.9633   0.3459   0.6044     H
H       0.9633   0.6541   0.8956     H
H       0.9633   0.8459   0.3956     H
H       0.9663   0.0905   0.2021     H
H       0.9663   0.4095   0.7021     H
H       0.9663   0.5905   0.7979     H
H       0.9663   0.9095   0.2979     H
H       0.9682   0.1548   0.9312     H
H       0.9682   0.3452   0.4312     H
H       0.9682   0.6548   0.0688     H
H       0.9682   0.8452   0.5688     H
C        0.969   0.0403   0.8405     C
C        0.969   0.4597   0.3405     C
C        0.969   0.5403   0.1595     C
C        0.969   0.9597   0.6595     C
O       0.9698   0.0897   0.9784     O
O       0.9698   0.4103   0.4784     O
O       0.9698   0.5897   0.0216     O
O       0.9698   0.9103   0.5216     O
O       0.9715   0.0834   0.6591     O
O       0.9715   0.4166   0.1591     O
O       0.9715   0.5834   0.3409     O
O       0.9715   0.9166   0.8409     O
C       0.9768   0.1084   0.0193     C
C       0.9768   0.3916   0.5193     C
C       0.9768   0.6084   0.9807     C
C       0.9768   0.8916   0.4807     C
O       0.9784   0.0302   0.4103     O
O       0.9784   0.4698   0.9103     O
O       0.9784   0.5302   0.5897     O
O       0.9784   0.9698   0.0897     O
C       0.9807   0.0232   0.8916     C
C       0.9807   0.4768   0.3916     C
C       0.9807   0.5232   0.1084     C
C       0.9807   0.9768   0.6084     C
C       0.9924   0.0514   0.3083     C
C       0.9924   0.4486   0.8083     C
C       0.9924   0.5514   0.6917     C
C       0.9924   0.9486   0.1917     C
C       0.9971   0.0648   0.7586     C
C       0.9971   0.4352   0.2586     C
C       0.9971   0.5648   0.2414     C
C       0.9971   0.9352   0.7414     C
O       0.9989   0.0834   0.0531     O
O       0.9989   0.4166   0.5531     O
O       0.9989   0.5834   0.9469     O
O       0.9989   0.9166   0.4469     O
