data_I
_chemical_name_common  '/home/zhangsd/repos/MofS-CGCNN/ML/data/WS24/clean_cifs/KETHEY01'
_cell_length_a  9.24200
_cell_length_b  9.72700
_cell_length_c 18.20100
_cell_angle_alpha 90.00000
_cell_angle_beta  90.00000
_cell_angle_gamma 105.11000
_space_group_name_H-M_alt      'P 1'


loop_
_space_group_symop_operation_xyz
  'x, y, z' 

loop_
_atom_site_label
_atom_site_fract_x
_atom_site_fract_y
_atom_site_fract_z
_atom_site_type_symbol
H       0.0239    0.395   0.0491     H
H       0.0239    0.895   0.4509     H
C       0.0402   0.3581  0.09464     C
C       0.0402   0.8581  0.40536     C
C        0.053   0.3041  0.69397     C
C        0.053   0.8041  0.80603     C
C       0.0742   0.2466  0.62598     C
C       0.0742   0.7466  0.87402     C
C       0.0849    0.251  0.22847     C
C       0.0849    0.751  0.27153     C
H       0.1039    0.217   0.2743     H
H       0.1039    0.717   0.2257     H
H       0.1308   0.3594   0.8334     H
H       0.1308   0.8594   0.6666     H
H       0.1652   0.2785   0.6016     H
H       0.1652   0.7785   0.8984     H
C       0.1719     0.42  0.72713     C
C       0.1719     0.92  0.77287     C
N       0.1739   0.4084  0.12755     N
N       0.1739   0.9084  0.37245     N
C        0.193   0.3566  0.19401     C
C        0.193   0.8566  0.30599     C
C       0.1941   0.4259  0.80326     C
C       0.1941   0.9259  0.69674     C
O       0.2312   0.4751  0.95706     O
O       0.2312   0.9751  0.54294     O
H        0.249   0.0224   0.8673     H
H        0.249   0.5224   0.6327     H
C       0.2632   0.0249  0.81671     C
C       0.2632   0.5249  0.68329     C
H       0.2835   0.3934   0.2182     H
H       0.2835   0.8934   0.2818     H
C       0.3105   0.0308   0.6659     C
C       0.3105   0.5308   0.8341     C
C       0.3368   0.0318  0.58475     C
C       0.3368   0.5318  0.91525     C
Cd     0.36637  0.06172  0.43373    Cd
Cd     0.36637  0.56172  0.06627    Cd
C       0.3758   0.1338  0.78563     C
C       0.3758   0.6338  0.71437     C
C       0.4004   0.1342  0.71034     C
C       0.4004   0.6342  0.78966     C
O       0.4227   0.1611  0.30562     O
O       0.4227   0.6611  0.19438     O
O       0.4382    0.249  0.90081     O
O       0.4382    0.749  0.59919     O
O       0.4685   0.0921  0.56103     O
O       0.4685   0.5921  0.93897     O
C       0.4712   0.2487  0.83366     C
C       0.4712   0.7487  0.66634     C
H       0.4777   0.2044   0.6896     H
H       0.4777   0.7044   0.8104     H
H       0.5223   0.2956   0.1896     H
H       0.5223   0.7956   0.3104     H
C       0.5288   0.2513  0.33366     C
C       0.5288   0.7513  0.16634     C
O       0.5315   0.4079  0.06103     O
O       0.5315   0.9079  0.43897     O
O       0.5618    0.251  0.40081     O
O       0.5618    0.751  0.09919     O
O       0.5773   0.3389  0.80562     O
O       0.5773   0.8389  0.69438     O
C       0.5996   0.3658  0.21034     C
C       0.5996   0.8658  0.28966     C
C       0.6242   0.3662  0.28563     C
C       0.6242   0.8662  0.21437     C
Cd     0.63363  0.43828  0.93373    Cd
Cd     0.63363  0.93828  0.56627    Cd
C       0.6632   0.4682  0.08475     C
C       0.6632   0.9682  0.41525     C
C       0.6895   0.4692   0.1659     C
C       0.6895   0.9692   0.3341     C
H       0.7165   0.1066   0.7182     H
H       0.7165   0.6066   0.7818     H
C       0.7368   0.4751  0.31671     C
C       0.7368   0.9751  0.18329     C
H        0.751   0.4776   0.3673     H
H        0.751   0.9776   0.1327     H
O       0.7688   0.0249  0.45706     O
O       0.7688   0.5249  0.04294     O
C       0.8059   0.0741  0.30326     C
C       0.8059   0.5741  0.19674     C
C        0.807   0.1434  0.69401     C
C        0.807   0.6434  0.80599     C
N       0.8261   0.0916  0.62755     N
N       0.8261   0.5916  0.87245     N
C       0.8281     0.08  0.22713     C
C       0.8281     0.58  0.27287     C
H       0.8348   0.2215   0.1016     H
H       0.8348   0.7215   0.3984     H
H       0.8692   0.1406   0.3334     H
H       0.8692   0.6406   0.1666     H
H       0.8961    0.283   0.7743     H
H       0.8961    0.783   0.7257     H
C       0.9151    0.249  0.72847     C
C       0.9151    0.749  0.77153     C
C       0.9258   0.2534  0.12598     C
C       0.9258   0.7534  0.37402     C
C        0.947   0.1959  0.19397     C
C        0.947   0.6959  0.30603     C
C       0.9598   0.1419  0.59464     C
C       0.9598   0.6419  0.90536     C
H       0.9761    0.105   0.5491     H
H       0.9761    0.605   0.9509     H
