data_I
_chemical_name_common  '/home/zhangsd/repos/MofS-CGCNN/ML/data/WS24/clean_cifs/KEWZET'
_cell_length_a 10.91300
_cell_length_b 23.19500
_cell_length_c 10.04300
_cell_angle_alpha 90.00000
_cell_angle_beta  104.15000
_cell_angle_gamma 90.00000
_space_group_name_H-M_alt      'P 1'


loop_
_space_group_symop_operation_xyz
  'x, y, z' 

loop_
_atom_site_label
_atom_site_fract_x
_atom_site_fract_y
_atom_site_fract_z
_atom_site_type_symbol
Mn         0.0  0.15409     0.75    Mn
Mn         0.0  0.84591     0.25    Mn
C       0.0083  0.47539    0.488     C
C       0.0083  0.52461    0.988     C
C      0.01104   0.3161  0.98123     C
C      0.01104   0.6839  0.48123     C
C       0.0292   0.4151   0.4686     C
C       0.0292   0.5849   0.9686     C
C      0.03446  0.37445   0.9708     C
C      0.03446  0.62555   0.4708     C
O      0.03776  0.22176  0.90374     O
O      0.03776  0.77824  0.40374     O
C      0.07273  0.27279   0.9073     C
C      0.07273  0.72721   0.4073     C
C      0.07381  0.29773  0.44483     C
C      0.07381  0.70227  0.94483     C
H       0.0881   0.2585   0.4363     H
H       0.0881   0.7415   0.9363     H
H       0.0929   0.3866   0.9231     H
H       0.0929   0.6134   0.4231     H
C      0.11577  0.39636  0.39579     C
C      0.11577  0.60364  0.89579     C
C      0.13747  0.33771  0.38339     C
C      0.13747  0.66229  0.88339     C
O      0.15622  0.29242    0.851     O
O      0.15622  0.70758    0.351     O
H        0.159   0.4231   0.3555     H
H        0.159   0.5769   0.8555     H
O       0.1907  0.14807  0.71812     O
O       0.1907  0.85193  0.21812     O
O      0.22266   0.2641  0.27468     O
O      0.22266   0.7359  0.77468     O
C      0.23177  0.31743  0.30699     C
C      0.23177  0.68257  0.80699     C
C      0.26823  0.18257  0.69301     C
C      0.26823  0.81743  0.19301     C
O      0.27734   0.2359  0.72532     O
O      0.27734   0.7641  0.22532     O
O       0.3093  0.35193  0.28188     O
O       0.3093  0.64807  0.78188     O
H        0.341   0.0769   0.6445     H
H        0.341   0.9231   0.1445     H
O      0.34378  0.20758    0.149     O
O      0.34378  0.79242    0.649     O
C      0.36253  0.16229  0.61661     C
C      0.36253  0.83771  0.11661     C
C      0.38423  0.10364  0.60421     C
C      0.38423  0.89636  0.10421     C
H       0.4071   0.1134   0.0769     H
H       0.4071   0.8866   0.5769     H
H       0.4119   0.2415   0.5637     H
H       0.4119   0.7585   0.0637     H
C      0.42619  0.20227  0.55517     C
C      0.42619  0.79773  0.05517     C
C      0.42727  0.22721   0.0927     C
C      0.42727  0.77279   0.5927     C
O      0.46224  0.27824  0.09626     O
O      0.46224  0.72176  0.59626     O
C      0.46554  0.12555   0.0292     C
C      0.46554  0.87445   0.5292     C
C       0.4708   0.0849   0.5314     C
C       0.4708   0.9151   0.0314     C
C      0.48896   0.1839  0.01877     C
C      0.48896   0.8161  0.51877     C
C       0.4917  0.02461    0.512     C
C       0.4917  0.97539    0.012     C
Mn         0.5  0.34591     0.25    Mn
Mn         0.5  0.65409     0.75    Mn
C       0.5083  0.02461    0.988     C
C       0.5083  0.97539    0.488     C
C      0.51104   0.1839  0.48123     C
C      0.51104   0.8161  0.98123     C
C       0.5292   0.0849   0.9686     C
C       0.5292   0.9151   0.4686     C
C      0.53446  0.12555   0.4708     C
C      0.53446  0.87445   0.9708     C
O      0.53776  0.27824  0.40374     O
O      0.53776  0.72176  0.90374     O
C      0.57273  0.22721   0.4073     C
C      0.57273  0.77279   0.9073     C
C      0.57381  0.20227  0.94483     C
C      0.57381  0.79773  0.44483     C
H       0.5881   0.2415   0.9363     H
H       0.5881   0.7585   0.4363     H
H       0.5929   0.1134   0.4231     H
H       0.5929   0.8866   0.9231     H
C      0.61577  0.10364  0.89579     C
C      0.61577  0.89636  0.39579     C
C      0.63747  0.16229  0.88339     C
C      0.63747  0.83771  0.38339     C
O      0.65622  0.20758    0.351     O
O      0.65622  0.79242    0.851     O
H        0.659   0.0769   0.8555     H
H        0.659   0.9231   0.3555     H
O       0.6907  0.35193  0.21812     O
O       0.6907  0.64807  0.71812     O
O      0.72266   0.2359  0.77468     O
O      0.72266   0.7641  0.27468     O
C      0.73177  0.18257  0.80699     C
C      0.73177  0.81743  0.30699     C
C      0.76823  0.31743  0.19301     C
C      0.76823  0.68257  0.69301     C
O      0.77734   0.2641  0.22532     O
O      0.77734   0.7359  0.72532     O
O       0.8093  0.14807  0.78188     O
O       0.8093  0.85193  0.28188     O
H        0.841   0.4231   0.1445     H
H        0.841   0.5769   0.6445     H
O      0.84378  0.29242    0.649     O
O      0.84378  0.70758    0.149     O
C      0.86253  0.33771  0.11661     C
C      0.86253  0.66229  0.61661     C
C      0.88423  0.39636  0.10421     C
C      0.88423  0.60364  0.60421     C
H       0.9071   0.3866   0.5769     H
H       0.9071   0.6134   0.0769     H
H       0.9119   0.2585   0.0637     H
H       0.9119   0.7415   0.5637     H
C      0.92619  0.29773  0.05517     C
C      0.92619  0.70227  0.55517     C
C      0.92727  0.27279   0.5927     C
C      0.92727  0.72721   0.0927     C
O      0.96224  0.22176  0.59626     O
O      0.96224  0.77824  0.09626     O
C      0.96554  0.37445   0.5292     C
C      0.96554  0.62555   0.0292     C
C       0.9708   0.4151   0.0314     C
C       0.9708   0.5849   0.5314     C
C      0.98896   0.3161  0.51877     C
C      0.98896   0.6839  0.01877     C
C       0.9917  0.47539    0.012     C
C       0.9917  0.52461    0.512     C
