data_I
_chemical_name_common  '/home/zhangsd/repos/MofS-CGCNN/ML/data/WS24/clean_cifs/KIYJAF'
_cell_length_a 16.20990
_cell_length_b 17.20610
_cell_length_c 34.91230
_cell_angle_alpha 94.60400
_cell_angle_beta  90.00000
_cell_angle_gamma 90.00000
_space_group_name_H-M_alt      'P 1'


loop_
_space_group_symop_operation_xyz
  'x, y, z' 

loop_
_atom_site_label
_atom_site_fract_x
_atom_site_fract_y
_atom_site_fract_z
_atom_site_type_symbol
N       0.0002   0.0482  0.30346     N
C       0.0008   0.3007  0.00475     C
C       0.0017   0.6687   0.5068     C
N        0.002   0.1848  0.36779     N
C        0.002   0.9592   0.3983     C
C       0.0027   0.2528  0.35292     C
H       0.0031   0.9268   0.4956     H
H       0.0033   0.0993   0.9176     H
C       0.0046    0.813   0.5036     C
C       0.0051   0.0787  0.27072     C
C       0.0052   0.6212   0.9956     C
H       0.0052   0.9956   0.9591     H
H       0.0068   0.7669   0.9501     H
O        0.007   0.0222  0.38382     O
H       0.0107   0.6786   0.5342     H
H       0.0114   0.4038    0.248     H
H       0.0151   0.4107   0.0251     H
H       0.0186    0.182    0.472     H
C       0.0192   0.8783   0.4843     C
H       0.0205   0.7321   0.8228     H
H       0.0229   0.8764   0.7348     H
C       0.0239    0.741    0.487     C
H       0.0241    0.141   0.8577     H
C       0.0255   0.2799  0.16294     C
Co     0.02725    0.548  0.83625    Co
H       0.0273   0.7974   0.0271     H
O        0.028   0.6269  0.13992     O
C       0.0309   0.7433   0.0261     C
H       0.0328   0.7341   0.6665     H
C       0.0357   0.0699   0.8999     C
C       0.0369   0.2624   0.0387     C
C       0.0377   0.4512  0.24533     C
H       0.0377   0.6262   0.4975     H
O       0.0392   0.5015  0.12273     O
N       0.0397   0.4863  0.21336     N
H       0.0403   0.9143   0.9435     H
N       0.0408   0.3493  0.15112     N
C       0.0411   0.5882    0.026     C
H       0.0423   0.5341   0.0257     H
H       0.0456   0.3602   0.3033     H
H       0.0459   0.1695   0.2155     H
C       0.0492   0.0952   0.8641     C
C       0.0501   0.9843   0.2994     C
H        0.052   0.5762   0.5741     H
H       0.0532   0.3035   0.0579     H
C       0.0532   0.9694  0.94765     C
O       0.0536    0.089  0.60876     O
N       0.0553    0.038  0.24551     N
C       0.0559   0.5697   0.1191     C
C       0.0562   0.8741   0.4496     C
H       0.0576     0.09    0.786     H
H       0.0596   0.9507   0.3186     H
N       0.0604    0.301  0.36891     N
C       0.0614   0.7347   0.4521     C
C       0.0643   0.1899  0.39427     C
H       0.0656   0.4111   0.6112     H
C       0.0664   0.9465   0.4283     C
H       0.0664   0.9915   0.4469     H
C       0.0673   0.1314  0.19789     C
C       0.0678   0.3964  0.32167     C
C       0.0683   0.7081   0.0558     C
Co     0.06911  0.91488  0.64667    Co
H       0.0694    0.489   0.5603     H
C       0.0703   0.0009  0.90949     C
C       0.0738   0.6288   0.0556     C
C       0.0757   0.0569  0.20718     C
H       0.0768   0.6861   0.4409     H
C       0.0769   0.8017   0.4333     C
N       0.0785   0.4922  0.27393     N
H       0.0792     0.15   0.4093     H
C       0.0806   0.3778  0.35865     C
C       0.0841   0.9764   0.2639     C
C       0.0845   0.5541  0.22212     C
N        0.085   0.2288  0.15169     N
H       0.0856   0.3867    0.674     H
C        0.087    0.355  0.50041     C
C       0.0888   0.4705  0.31232     C
H       0.0901    0.739   0.0764     H
C       0.0905   0.4489   0.6279     C
C       0.0912   0.1496  0.16151     C
C       0.0934   0.5354  0.57343     C
H       0.0957   0.5913   0.2049     H
C       0.0984   0.0551   0.8376     C
H       0.0994   0.4587    0.743     H
C       0.1009   0.2595  0.39566     C
H       0.1018   0.7971   0.4092     H
C       0.1036   0.4338   0.6656     C
C       0.1078   0.9991  0.18163     C
C       0.1087   0.2092  0.03151     C
C       0.1094   0.5584  0.25903     C
C       0.1111   0.0818   0.7975     C
C       0.1134   0.5184  0.61455     C
H       0.1137   0.9484   0.1887     H
C       0.1154   0.3416  0.13158     C
C       0.1157   0.5883   0.0874     C
O       0.1159   0.6189  0.80212     O
H       0.1162   0.3101   0.9292     H
C       0.1162   0.4287  0.38603     C
H       0.1195   0.9372   0.2541     H
H         0.12   0.9443   0.4159     H
O       0.1216   0.3425   0.5319     O
C       0.1224   0.0929  0.13491     C
C       0.1226   0.9637   0.8835     C
O        0.124   0.1601  0.05478     O
C       0.1248   0.9798  0.97527     C
C        0.125   0.5241  0.33957     C
O       0.1251   0.0409   0.9971     O
H       0.1253   0.4142   0.4108     H
H       0.1267   0.2404   0.8662     H
O       0.1271   0.3869  0.47517     O
O       0.1293   0.2179  0.78674     O
C       0.1311   0.0179  0.14555     C
C       0.1359   0.9908   0.8484     C
H       0.1372   0.1053   0.1104     H
C       0.1381   0.5019  0.37613     C
H       0.1391   0.0409   0.7818     H
O       0.1395   0.5922  0.86141     O
H       0.1398   0.5736   0.3331     H
H       0.1407   0.5402   0.0766     H
H       0.1408   0.5977   0.2718     H
C       0.1421    0.486    0.691     C
C       0.1424   0.2676  0.13124     C
H       0.1426   0.3817   0.1204     H
O       0.1438   0.8361  0.68704     O
N        0.144    0.898  0.59553     N
H       0.1447   0.2767   0.4114     H
C       0.1497   0.3236  0.90911     C
H       0.1497   0.9188   0.8898     H
C       0.1526   0.5715   0.6403     C
C       0.1534   0.4681   0.7324     C
H       0.1541   0.0052   0.0672     H
H       0.1542   0.0022    0.575     H
O       0.1558   0.2156  0.00283     O
H        0.156   0.5104    0.455     H
C       0.1563    0.285  0.87433     C
H       0.1594   0.6215   0.0985     H
C       0.1612   0.1566  0.79763     C
C        0.162   0.6209   0.8308     C
N       0.1629   0.9599  0.11892     N
C       0.1653   0.5558   0.6783     C
C       0.1653     0.56  0.55047     C
C       0.1664   0.9493  0.57154     C
H       0.1665   0.7812   0.5909     H
H       0.1679   0.6611   0.9209     H
H       0.1707   0.6186   0.6321     H
C       0.1712   0.9631  0.08038     C
H       0.1722   0.9641   0.8315     H
C       0.1733   0.8285   0.5801     C
H       0.1753   0.7983   0.9388     H
H       0.1755   0.5143   0.7465     H
N       0.1766   0.5555  0.40342     N
O       0.1768   0.9552  0.67589     O
O       0.1792    0.928  0.97455     O
C       0.1812   0.5494   0.4422     C
H       0.1879   0.3833   0.2032     H
C       0.1897   0.8938   0.6923     C
H         0.19    0.247   0.1196     H
H         0.19   0.5932   0.6953     H
O       0.1904   0.6297  0.55482     O
C       0.1913   0.6844  0.94326     C
H       0.1939   0.2428   0.2145     H
C       0.1959   0.7597  0.95336     C
C        0.196     0.89  0.12668     C
H       0.1986   0.5381   0.9185     H
O       0.1995   0.5137  0.52632     O
H       0.2001   0.8707   0.1507     H
H       0.2004   0.1513   0.2579     H
N       0.2007   0.3858  0.90959     N
N       0.2059   0.9006  0.06392     N
O       0.2062   0.3812  0.77421     O
H       0.2073   0.8056   0.8331     H
C       0.2076   0.4008  0.74016     C
N        0.209   0.9162   0.5414     N
N        0.213   0.3205  0.85241     N
C       0.2131   0.8374  0.54718     C
H       0.2133   0.1168   0.3227     H
H       0.2136   0.8965   0.7901     H
C       0.2139   0.2572   0.2391     C
C       0.2148   0.5167  0.94093     C
H        0.215   0.1944   0.9335     H
C       0.2173    0.202   0.2652     C
Co     0.21872  0.11369  0.01183    Co
H       0.2189   0.1957   0.5209     H
C       0.2193   0.4377  0.94239     C
C       0.2204   0.6203  0.39617     C
C       0.2218   0.8541  0.09297     C
H       0.2223   0.9173   0.3672     H
H       0.2239   0.0642   0.5285     H
N       0.2259   0.6058  0.45887     N
H       0.2275     0.64   0.3724     H
N       0.2276   0.6466  0.97216     N
C        0.229   0.7915   0.8088     C
H       0.2319   0.4424   0.2328     H
C       0.2325   0.8464   0.7828     C
N       0.2348   0.7742   0.9879     N
O        0.235    0.158  0.80868     O
C       0.2351   0.5648  0.97394     C
Co     0.23616  0.39017  0.51108    Co
C       0.2362   0.9521   0.5078     C
C       0.2371   0.3916   0.2189     C
C       0.2383   0.3316   0.2474     C
H       0.2386   0.7986   0.5313     H
C       0.2387   0.3817  0.87452     C
C       0.2392   0.0322  0.50691     C
H       0.2396   0.1807   0.3548     H
C       0.2432    0.404  0.97564     C
Co     0.24426  0.27967  0.79493    Co
C       0.2448   0.2195   0.3012     C
H       0.2452     0.35   0.9762     H
O       0.2464   0.8711  0.21466     O
C       0.2465   0.2044  0.49835     C
H       0.2466   0.8052     0.09     H
C       0.2467   0.6577   0.8293     C
C       0.2485   0.1504  0.93013     C
C       0.2515   0.6504  0.43013     C
C       0.2533   0.1577   0.3293     C
H       0.2534   0.3052     0.59     H
C       0.2535   0.7044  0.99835     C
O       0.2536   0.3711  0.71466     O
H       0.2548     0.85   0.4762     H
C       0.2552   0.7195   0.8012     C
Co     0.25574  0.77967  0.29493    Co
C       0.2568    0.904  0.47564     C
H       0.2604   0.6807   0.8548     H
C       0.2608   0.5322  0.00691     C
C       0.2613   0.8817  0.37452     C
H       0.2614   0.2986   0.0313     H
C       0.2617   0.8316   0.7474     C
C       0.2629   0.8916   0.7189     C
C       0.2638   0.4521   0.0078     C
Co     0.26384  0.89017  0.01108    Co
C       0.2649   0.0648  0.47394     C
O        0.265    0.658  0.30868     O
N       0.2652   0.2742   0.4879     N
C       0.2675   0.3464   0.2828     C
H       0.2681   0.9424   0.7328     H
C        0.271   0.2915   0.3088     C
N       0.2724   0.1466  0.47216     N
H       0.2725     0.14   0.8724     H
N       0.2741   0.1058  0.95887     N
H       0.2761   0.5642   0.0285     H
H       0.2777   0.4173   0.8672     H
C       0.2782   0.3541  0.59297     C
C       0.2796   0.1203  0.89617     C
C       0.2807   0.9377  0.44239     C
H       0.2811   0.6957   0.0209     H
Co     0.28128  0.61369  0.51183    Co
C       0.2827    0.702   0.7652     C
H        0.285   0.6944   0.4335     H
C       0.2852   0.0167  0.44093     C
C       0.2861   0.7572   0.7391     C
H       0.2864   0.3965   0.2901     H
H       0.2867   0.6168   0.8227     H
C       0.2869   0.3374  0.04718     C
N        0.287   0.8205  0.35241     N
N        0.291   0.4162   0.0414     N
C       0.2924   0.9008  0.24016     C
H       0.2927   0.3056   0.3331     H
O       0.2938   0.8812  0.27421     O
N       0.2941   0.4006  0.56392     N
N       0.2993   0.8858  0.40959     N
H       0.2996   0.6513   0.7579     H
H       0.2999   0.3707   0.6507     H
O       0.3005   0.0137  0.02632     O
H       0.3014   0.0381   0.4185     H
C        0.304     0.39  0.62668     C
C       0.3041   0.2597  0.45336     C
H       0.3061   0.7428   0.7145     H
C       0.3087   0.1844  0.44326     C
O       0.3096   0.1297  0.05482     O
H         0.31   0.0932   0.1953     H
H         0.31    0.747   0.6196     H
C       0.3103   0.3938   0.1923     C
H       0.3121   0.8833   0.7032     H
C       0.3188   0.0494   0.9422     C
O       0.3208    0.428  0.47455     O
O       0.3232   0.4552  0.17589     O
N       0.3234   0.0555  0.90342     N
H       0.3245   0.0143   0.2465     H
H       0.3247   0.2983   0.4388     H
C       0.3267   0.3285   0.0801     C
H       0.3278   0.4641   0.3315     H
C       0.3288   0.4631  0.58038     C
H       0.3293   0.1186   0.1321     H
H       0.3321   0.1611   0.4209     H
H       0.3335   0.2812   0.0909     H
C       0.3336   0.4493  0.07154     C
C       0.3347   0.0558   0.1783     C
C       0.3347     0.06  0.05047     C
N       0.3371   0.4599  0.61892     N
C        0.338   0.1209   0.3308     C
C       0.3388   0.6566  0.29763     C
H       0.3406   0.1215   0.5985     H
C       0.3437    0.785  0.37433     C
H        0.344   0.0104    0.955     H
O       0.3442   0.7156  0.50283     O
H       0.3458   0.5022    0.075     H
H       0.3459   0.5052   0.5672     H
C       0.3466   0.9681   0.2324     C
C       0.3474   0.0715   0.1403     C
H       0.3503   0.4188   0.3898     H
C       0.3503   0.8236  0.40911     C
H       0.3553   0.7767   0.9114     H
N        0.356    0.398  0.09553     N
O       0.3562   0.3361  0.18704     O
H       0.3574   0.8817   0.6204     H
C       0.3576   0.7676  0.63124     C
C       0.3579    0.986    0.191     C
H       0.3592   0.0977   0.7718     H
H       0.3593   0.0402   0.5766     H
H       0.3602   0.0736   0.8331     H
O       0.3605   0.0922  0.36141     O
H       0.3609   0.5409   0.2818     H
C       0.3619   0.0019  0.87613     C
H       0.3628   0.6053   0.6104     H
C       0.3641   0.4908   0.3484     C
C       0.3689   0.5179  0.64555     C
O       0.3707   0.7179  0.28674     O
O       0.3729   0.8869  0.97517     O
H       0.3733   0.7404   0.3662     H
H       0.3747   0.9142   0.9108     H
O       0.3749   0.5409   0.4971     O
C        0.375   0.0241  0.83957     C
C       0.3752   0.4798  0.47527     C
O        0.376   0.6601  0.55478     O
C       0.3774   0.4637   0.3835     C
C       0.3776   0.5929  0.63491     C
O       0.3784   0.8425   0.0319     O
H         0.38   0.4443   0.9159     H
H       0.3805   0.4372   0.7541     H
H       0.3838   0.8101   0.4292     H
C       0.3838   0.9287  0.88603     C
O       0.3841   0.1189  0.30212     O
C       0.3843   0.0883   0.5874     C
C       0.3846   0.8416  0.63158     C
H       0.3863   0.4484   0.6887     H
C       0.3866   0.0184  0.11455     C
C       0.3889   0.5818   0.2975     C
C       0.3906   0.0584  0.75903     C
C       0.3913   0.7092  0.53151     C
C       0.3922   0.4991  0.68163     C
C       0.3964   0.9338   0.1656     C
H       0.3982   0.2971   0.9092     H
C       0.3991   0.7595  0.89566     C
H       0.4006   0.9587    0.243     H
C       0.4016   0.5551   0.3376     C
H       0.4043   0.0913   0.7049     H
C       0.4066   0.0354  0.07343     C
C       0.4088   0.6496  0.66151     C
C       0.4095   0.9489   0.1279     C
H       0.4099    0.239   0.5764     H
C       0.4112   0.9705  0.81232     C
C        0.413    0.855  0.00041     C
H       0.4144   0.8867    0.174     H
N        0.415   0.7288  0.65169     N
C       0.4155   0.0541  0.72212     C
C       0.4159   0.4764   0.7639     C
C       0.4194   0.8778  0.85865     C
H       0.4208     0.65   0.9093     H
N       0.4215   0.9922  0.77393     N
C       0.4231   0.3017   0.9333     C
H       0.4232   0.1861   0.9409     H
C       0.4243   0.5569  0.70718     C
C       0.4262   0.1288   0.5556     C
C       0.4297   0.5009  0.40949     C
H       0.4306    0.989   0.0603     H
Co     0.43089  0.41488  0.14667    Co
C       0.4317   0.2081   0.5558     C
C       0.4322   0.8964  0.82167     C
C       0.4327   0.6314  0.69789     C
C       0.4336   0.4465   0.9283     C
H       0.4336   0.4915   0.9469     H
H       0.4344   0.9111   0.1112     H
C       0.4357   0.6899  0.89427     C
C       0.4386   0.2347   0.9521     C
N       0.4396    0.801  0.86891     N
H       0.4404   0.4507   0.8186     H
H       0.4424     0.59    0.286     H
C       0.4438   0.3741   0.9496     C
C       0.4441   0.0697   0.6191     C
N       0.4447    0.538  0.74551     N
O       0.4464    0.589  0.10876     O
C       0.4468   0.4694  0.44765     C
H       0.4468   0.8035   0.5579     H
H        0.448   0.0762   0.0741     H
C       0.4499   0.4843   0.7994     C
C       0.4508   0.5952   0.3641     C
H       0.4541   0.6695   0.7155     H
H       0.4544   0.8602   0.8033     H
H       0.4577   0.0341   0.5257     H
C       0.4589   0.0882    0.526     C
N       0.4592   0.8493  0.65112     N
H       0.4597   0.4143   0.4435     H
N       0.4603   0.9863  0.71336     N
O       0.4608   0.0015  0.62273     O
H       0.4623   0.1262   0.9975     H
C       0.4623   0.9512  0.74533     C
C       0.4631   0.7624   0.5387     C
C       0.4643   0.5699   0.3999     C
H       0.4672   0.2341   0.1665     H
C       0.4691   0.2433   0.5261     C
O        0.472   0.1269  0.63992     O
H       0.4727   0.2974   0.5271     H
Co     0.47275    0.048  0.33625    Co
C       0.4745   0.7799  0.66294     C
H       0.4759    0.641   0.3577     H
C       0.4761    0.241    0.987     C
H       0.4771   0.3764   0.2348     H
H       0.4795   0.2321   0.3228     H
C       0.4808   0.3783   0.9843     C
H       0.4814    0.682    0.972     H
H       0.4849   0.9107   0.5251     H
H       0.4886   0.9038    0.748     H
H       0.4893   0.1786   0.0342     H
O        0.493   0.5222  0.88382     O
H       0.4932   0.2669   0.4501     H
C       0.4948   0.1212   0.4956     C
H       0.4948   0.4956   0.4591     H
C       0.4949   0.5787  0.77072     C
C       0.4954    0.313   0.0036     C
H       0.4967   0.5993   0.4176     H
H       0.4969   0.4268   0.9956     H
C       0.4973   0.7528  0.85292     C
C        0.498   0.4592   0.8983     C
N        0.498   0.6848  0.86779     N
C       0.4983   0.1687   0.0068     C
C       0.4992   0.8007  0.50475     C
N       0.4998   0.5482  0.80346     N
N       0.5002   0.4518  0.19654     N
C       0.5008   0.1993  0.49525     C
C       0.5017   0.8313   0.9932     C
N        0.502   0.3152  0.13221     N
C        0.502   0.5408   0.1017     C
C       0.5027   0.2472  0.14708     C
H       0.5031   0.5732   0.0044     H
H       0.5033   0.4007   0.5824     H
C       0.5046    0.687   0.9964     C
C       0.5051   0.4213  0.22928     C
H       0.5052   0.5044   0.5409     H
C       0.5052   0.8788   0.5044     C
H       0.5068   0.7331   0.5499     H
O        0.507   0.4778  0.11618     O
H       0.5107   0.8214   0.9658     H
H       0.5114   0.0962    0.252     H
H       0.5151   0.0893   0.4749     H
H       0.5186    0.318    0.028     H
C       0.5192   0.6217   0.0157     C
H       0.5205   0.7679   0.6772     H
H       0.5229   0.6236   0.7652     H
C       0.5239    0.759    0.013     C
H       0.5241    0.359   0.6423     H
C       0.5255   0.2201  0.33706     C
Co     0.52725    0.952  0.66375    Co
H       0.5273   0.7026   0.4729     H
O        0.528   0.8731  0.36008     O
C       0.5309   0.7567   0.4739     C
H       0.5328   0.7659   0.8335     H
C       0.5357   0.4301   0.6001     C
C       0.5369   0.2376   0.4613     C
C       0.5377   0.0488  0.25467     C
H       0.5377   0.8738   0.0025     H
O       0.5392   0.9985  0.37727     O
N       0.5397   0.0137  0.28664     N
H       0.5403   0.5857   0.5565     H
N       0.5408   0.1507  0.34888     N
C       0.5411   0.9118    0.474     C
H       0.5423   0.9659   0.4743     H
H       0.5456   0.1398   0.1967     H
H       0.5459   0.3305   0.2845     H
C       0.5492   0.4048   0.6359     C
C       0.5501   0.5157   0.2006     C
H        0.552   0.9238   0.9259     H
H       0.5532   0.1965   0.4421     H
C       0.5532   0.5306  0.55235     C
O       0.5536    0.411  0.89124     O
N       0.5553    0.462  0.25449     N
C       0.5559   0.9303   0.3809     C
C       0.5562   0.6259   0.0504     C
H       0.5576     0.41    0.714     H
H       0.5596   0.5493   0.1814     H
N       0.5604    0.199  0.13109     N
C       0.5614   0.7653   0.0479     C
C       0.5643   0.3101  0.10573     C
H       0.5656   0.0889   0.8888     H
H       0.5664   0.5085   0.0531     H
C       0.5664   0.5535   0.0717     C
C       0.5673   0.3686  0.30211     C
C       0.5678   0.1036  0.17833     C
C       0.5683   0.7919   0.4442     C
Co     0.56911  0.58512  0.85333    Co
H       0.5694    0.011   0.9397     H
C       0.5703   0.4991  0.59051     C
C       0.5738   0.8712   0.4444     C
C       0.5757   0.4431  0.29282     C
H       0.5768   0.8139   0.0591     H
C       0.5769   0.6983   0.0667     C
N       0.5785   0.0078  0.22607     N
H       0.5792     0.35   0.0907     H
C       0.5806   0.1222  0.14135     C
C       0.5841   0.5236   0.2361     C
C       0.5845   0.9459  0.27788     C
N        0.585   0.2712  0.34831     N
H       0.5856   0.1133    0.826     H
C        0.587    0.145  0.99959     C
C       0.5888   0.0295  0.18768     C
H       0.5901    0.761   0.4236     H
C       0.5905   0.0511   0.8721     C
C       0.5912   0.3504  0.33849     C
C       0.5934   0.9646  0.92657     C
H       0.5957   0.9087   0.2951     H
C       0.5984   0.4449   0.6624     C
H       0.5994   0.0413    0.757     H
C       0.6009   0.2405  0.10434     C
H       0.6018   0.7029   0.0908     H
C       0.6036   0.0662   0.8344     C
C       0.6078   0.5009  0.31837     C
C       0.6087   0.2908  0.46849     C
C       0.6094   0.9416  0.24097     C
C       0.6111   0.4182   0.7025     C
C       0.6134   0.9816  0.88545     C
H       0.6137   0.5516   0.3113     H
C       0.6154   0.1584  0.36842     C
C       0.6157   0.9117   0.4126     C
O       0.6159   0.8811  0.69788     O
C       0.6162   0.0713  0.11397     C
H       0.6162   0.1899   0.5708     H
H       0.6195   0.5628   0.2459     H
H         0.62   0.5557   0.0841     H
O       0.6216   0.1575   0.9681     O
C       0.6224   0.4071  0.36509     C
C       0.6226   0.5363   0.6165     C
O        0.624   0.3399  0.44522     O
C       0.6248   0.5202  0.52473     C
C        0.625   0.9759  0.16043     C
O       0.6251   0.4591   0.5029     O
H       0.6253   0.0858   0.0892     H
H       0.6267   0.2596   0.6338     H
O       0.6271   0.1131  0.02483     O
O       0.6293   0.2821  0.71326     O
C       0.6311   0.4821  0.35445     C
C       0.6359   0.5092   0.6516     C
H       0.6372   0.3947   0.3896     H
C       0.6381   0.9981  0.12387     C
H       0.6391   0.4591   0.7182     H
O       0.6395   0.9078  0.63859     O
H       0.6398   0.9264   0.1669     H
H       0.6407   0.9598   0.4234     H
H       0.6408   0.9023   0.2282     H
C       0.6421    0.014    0.809     C
C       0.6424   0.2324  0.36876     C
H       0.6426   0.1183   0.3796     H
O       0.6438   0.6639  0.81296     O
N        0.644    0.602  0.90447     N
H       0.6447   0.2233   0.0886     H
C       0.6497   0.1764  0.59089     C
H       0.6497   0.5812   0.6102     H
C       0.6526   0.9285   0.8597     C
C       0.6534   0.0319   0.7676     C
H       0.6541   0.4948   0.4328     H
H       0.6542   0.4978    0.925     H
O       0.6558   0.2844  0.49717     O
H        0.656   0.9896    0.045     H
C       0.6563    0.215  0.62567     C
H       0.6594   0.8785   0.4015     H
C       0.6612   0.3434  0.70237     C
C        0.662   0.8791   0.6692     C
N       0.6629   0.5401  0.38108     N
C       0.6653     0.94  0.94953     C
C       0.6653   0.9442   0.8217     C
C       0.6664   0.5507  0.92846     C
H       0.6665   0.7188   0.9091     H
H       0.6679   0.8389   0.5791     H
H       0.6707   0.8814   0.8679     H
C       0.6712   0.5369  0.41962     C
H       0.6722   0.5359   0.6685     H
C       0.6733   0.6715   0.9199     C
H       0.6753   0.7017   0.5612     H
H       0.6755   0.9857   0.7535     H
N       0.6766   0.9445  0.09658     N
O       0.6768   0.5448  0.82411     O
O       0.6792    0.572  0.52545     O
C       0.6812   0.9506   0.0578     C
H       0.6879   0.1167   0.2968     H
C       0.6897   0.6062   0.8077     C
H         0.69    0.253   0.3804     H
H         0.69   0.9068   0.8047     H
O       0.6904   0.8703  0.94518     O
C       0.6913   0.8156  0.55674     C
H       0.6939   0.2572   0.2855     H
C       0.6959   0.7403  0.54664     C
C        0.696     0.61  0.37332     C
H       0.6986   0.9619   0.5815     H
O       0.6995   0.9863  0.97368     O
H       0.7001   0.6293   0.3493     H
H       0.7004   0.3487   0.2421     H
N       0.7007   0.1142  0.59041     N
N       0.7059   0.5994  0.43608     N
O       0.7062   0.1188  0.72579     O
H       0.7073   0.6944   0.6669     H
C       0.7076   0.0992  0.75984     C
N        0.709   0.5838   0.9586     N
N        0.713   0.1795  0.64759     N
C       0.7131   0.6626  0.95282     C
H       0.7133   0.3832   0.1773     H
H       0.7136   0.6035   0.7099     H
C       0.7139   0.2428   0.2609     C
C       0.7148   0.9833  0.55907     C
H        0.715   0.3056   0.5665     H
C       0.7173    0.298   0.2348     C
Co     0.71872  0.38631  0.48817    Co
H       0.7189   0.3043   0.9791     H
C       0.7193   0.0623  0.55761     C
C       0.7204   0.8797  0.10383     C
C       0.7218   0.6459  0.40703     C
H       0.7223   0.5827   0.1328     H
H       0.7239   0.4358   0.9715     H
N       0.7259   0.8942  0.04113     N
H       0.7275     0.86   0.1276     H
N       0.7276   0.8534  0.52784     N
C        0.729   0.7085   0.6912     C
H       0.7319   0.0576   0.2672     H
C       0.7325   0.6536   0.7172     C
N       0.7348   0.7258   0.5121     N
O        0.735    0.342  0.69132     O
C       0.7351   0.9352  0.52606     C
Co     0.73616  0.10983  0.98892    Co
C       0.7362   0.5479   0.9922     C
C       0.7371   0.1084   0.2811     C
C       0.7383   0.1684   0.2526     C
H       0.7386   0.7014   0.9687     H
C       0.7387   0.1183  0.62548     C
C       0.7392   0.4678  0.99309     C
H       0.7396   0.3193   0.1452     H
C       0.7432    0.096  0.52436     C
Co     0.74426  0.22033  0.70507    Co
C       0.7448   0.2805   0.1988     C
H       0.7452     0.15   0.5238     H
O       0.7464   0.6289  0.28534     O
C       0.7465   0.2956  0.00165     C
H       0.7466   0.6948     0.41     H
C       0.7467   0.8423   0.6707     C
C       0.7485   0.3496  0.56987     C
C       0.7515   0.8496  0.06987     C
C       0.7533   0.3423   0.1707     C
H       0.7534   0.1948     0.91     H
C       0.7535   0.7956  0.50165     C
O       0.7536   0.1289  0.78534     O
H       0.7548     0.65   0.0238     H
C       0.7552   0.7805   0.6988     C
Co     0.75574  0.72033  0.20507    Co
C       0.7568    0.596  0.02436     C
H       0.7604   0.8193   0.6452     H
C       0.7608   0.9678  0.49309     C
C       0.7613   0.6183  0.12548     C
H       0.7614   0.2014   0.4687     H
C       0.7617   0.6684   0.7526     C
C       0.7629   0.6084   0.7811     C
C       0.7638   0.0479   0.4922     C
Co     0.76384  0.60983  0.48892    Co
C       0.7649   0.4352  0.02606     C
O        0.765    0.842  0.19132     O
N       0.7652   0.2258   0.0121     N
C       0.7675   0.1536   0.2172     C
H       0.7681   0.5576   0.7672     H
C        0.771   0.2085   0.1912     C
N       0.7724   0.3534  0.02784     N
H       0.7725     0.36   0.6276     H
N       0.7741   0.3942  0.54113     N
H       0.7761   0.9358   0.4715     H
H       0.7777   0.0827   0.6328     H
C       0.7782   0.1459  0.90703     C
C       0.7796   0.3797  0.60383     C
C       0.7807   0.5623  0.05761     C
H       0.7811   0.8043   0.4791     H
Co     0.78128  0.88631  0.98817    Co
C       0.7827    0.798   0.7348     C
H        0.785   0.8056   0.0665     H
C       0.7852   0.4833  0.05907     C
C       0.7861   0.7428   0.7609     C
H       0.7864   0.1035   0.2099     H
H       0.7867   0.8832   0.6773     H
C       0.7869   0.1626  0.45282     C
N        0.787   0.6795  0.14759     N
N        0.791   0.0838   0.4586     N
C       0.7924   0.5992  0.25984     C
H       0.7927   0.1944   0.1669     H
O       0.7938   0.6188  0.22579     O
N       0.7941   0.0994  0.93608     N
N       0.7993   0.6142  0.09041     N
H       0.7996   0.8487   0.7421     H
H       0.7999   0.1293   0.8493     H
O       0.8005   0.4863  0.47368     O
H       0.8014   0.4619   0.0815     H
C        0.804     0.11  0.87332     C
C       0.8041   0.2403  0.04664     C
H       0.8061   0.7572   0.7855     H
C       0.8087   0.3156  0.05674     C
O       0.8096   0.3703  0.44518     O
H         0.81   0.4068   0.3047     H
H         0.81    0.753   0.8804     H
C       0.8103   0.1062   0.3077     C
H       0.8121   0.6167   0.7968     H
C       0.8188   0.4506   0.5578     C
O       0.8208    0.072  0.02545     O
O       0.8232   0.0448  0.32411     O
N       0.8234   0.4445  0.59658     N
H       0.8245   0.4857   0.2535     H
H       0.8247   0.2017   0.0612     H
C       0.8267   0.1715   0.4199     C
H       0.8278   0.0359   0.1685     H
C       0.8288   0.0369  0.91962     C
H       0.8293   0.3814   0.3679     H
H       0.8321   0.3389   0.0791     H
H       0.8335   0.2188   0.4091     H
C       0.8336   0.0507  0.42846     C
C       0.8347     0.44  0.44953     C
C       0.8347   0.4442   0.3217     C
N       0.8371   0.0401  0.88108     N
C        0.838   0.3791   0.1692     C
C       0.8388   0.8434  0.20237     C
H       0.8406   0.3785   0.9015     H
C       0.8437    0.715  0.12567     C
H        0.844   0.4896    0.545     H
O       0.8442   0.7844  0.99717     O
H       0.8458   0.9978    0.425     H
H       0.8459   0.9948   0.9328     H
C       0.8466   0.5319   0.2676     C
C       0.8474   0.4285   0.3597     C
H       0.8503   0.0812   0.1102     H
C       0.8503   0.6764  0.09089     C
H       0.8553   0.7233   0.5886     H
N        0.856    0.102  0.40447     N
O       0.8562   0.1639  0.31296     O
H       0.8574   0.6183   0.8796     H
C       0.8576   0.7324  0.86876     C
C       0.8579    0.514    0.309     C
H       0.8592   0.4023   0.7282     H
H       0.8593   0.4598   0.9234     H
H       0.8602   0.4264   0.6669     H
O       0.8605   0.4078  0.13859     O
H       0.8609   0.9591   0.2182     H
C       0.8619   0.4981  0.62387     C
H       0.8628   0.8947   0.8896     H
C       0.8641   0.0092   0.1516     C
C       0.8689   0.9821  0.85445     C
O       0.8707   0.7821  0.21326     O
O       0.8729   0.6131  0.52483     O
H       0.8733   0.7596   0.1338     H
H       0.8747   0.5858   0.5892     H
O       0.8749   0.9591   0.0029     O
C        0.875   0.4759  0.66043     C
C       0.8752   0.0202  0.02473     C
O        0.876   0.8399  0.94522     O
C       0.8774   0.0363   0.1165     C
C       0.8776   0.9071  0.86509     C
O       0.8784   0.6575   0.4681     O
H         0.88   0.0557   0.5841     H
H       0.8805   0.0628   0.7459     H
C       0.8838   0.5713  0.61397     C
H       0.8838   0.6899   0.0708     H
O       0.8841   0.3811  0.19788     O
C       0.8843   0.4117   0.9126     C
C       0.8846   0.6584  0.86842     C
H       0.8863   0.0516   0.8113     H
C       0.8866   0.4816  0.38545     C
C       0.8889   0.9182   0.2025     C
C       0.8906   0.4416  0.74097     C
C       0.8913   0.7908  0.96849     C
C       0.8922   0.0009  0.81837     C
C       0.8964   0.5662   0.3344     C
H       0.8982   0.2029   0.5908     H
C       0.8991   0.7405  0.60434     C
H       0.9006   0.5413    0.257     H
C       0.9016   0.9449   0.1624     C
H       0.9043   0.4087   0.7951     H
C       0.9066   0.4646  0.42657     C
C       0.9088   0.8504  0.83849     C
C       0.9095   0.5511   0.3721     C
H       0.9099    0.261   0.9236     H
C       0.9112   0.5295  0.68768     C
C        0.913    0.645  0.49959     C
H       0.9144   0.6133    0.326     H
N        0.915   0.7712  0.84831     N
C       0.9155   0.4459  0.77788     C
C       0.9159   0.0236   0.7361     C
C       0.9194   0.6222  0.64135     C
H       0.9208     0.85   0.5907     H
N       0.9215   0.5078  0.72607     N
C       0.9231   0.1983   0.5667     C
H       0.9232   0.3139   0.5591     H
C       0.9243   0.9431  0.79282     C
C       0.9262   0.3712   0.9444     C
C       0.9297   0.9991  0.09051     C
H       0.9306    0.511   0.4397     H
Co     0.93089  0.08512  0.35333    Co
C       0.9317   0.2919   0.9442     C
C       0.9322   0.6036  0.67833     C
C       0.9327   0.8686  0.80211     C
H       0.9336   0.0085   0.5531     H
C       0.9336   0.0535   0.5717     C
H       0.9344   0.5889   0.3888     H
C       0.9357   0.8101  0.60573     C
C       0.9386   0.2653   0.5479     C
N       0.9396    0.699  0.63109     N
H       0.9404   0.0493   0.6814     H
H       0.9424     0.91    0.214     H
C       0.9438   0.1259   0.5504     C
C       0.9441   0.4303   0.8809     C
N       0.9447    0.962  0.75449     N
O       0.9464    0.911  0.39124     O
C       0.9468   0.0306  0.05235     C
H       0.9468   0.6965   0.9421     H
H        0.948   0.4238   0.4259     H
C       0.9499   0.0157   0.7006     C
C       0.9508   0.9048   0.1359     C
H       0.9541   0.8305   0.7845     H
H       0.9544   0.6398   0.6967     H
H       0.9577   0.4659   0.9743     H
C       0.9589   0.4118    0.974     C
N       0.9592   0.6507  0.84888     N
H       0.9597   0.0857   0.0565     H
N       0.9603   0.5137  0.78664     N
O       0.9608   0.4985  0.87727     O
H       0.9623   0.3738   0.5025     H
C       0.9623   0.5488  0.75467     C
C       0.9631   0.7376   0.9613     C
C       0.9643   0.9301   0.1001     C
H       0.9672   0.2659   0.3335     H
C       0.9691   0.2567   0.9739     C
O        0.972   0.3731  0.86008     O
H       0.9727   0.2026   0.9729     H
Co     0.97275    0.452  0.16375    Co
C       0.9745   0.7201  0.83706     C
H       0.9759    0.859   0.1423     H
C       0.9761    0.259    0.513     C
H       0.9771   0.1236   0.2652     H
H       0.9795   0.2679   0.1772     H
C       0.9808   0.1217   0.5157     C
H       0.9814    0.818    0.528     H
H       0.9849   0.5893   0.9749     H
H       0.9886   0.5962    0.752     H
H       0.9893   0.3214   0.4658     H
O        0.993   0.9778  0.61618     O
H       0.9932   0.2331   0.0499     H
H       0.9948   0.0044   0.0409     H
C       0.9948   0.3788   0.0044     C
C       0.9949   0.9213  0.72928     C
C       0.9954    0.187   0.4964     C
H       0.9967   0.9007   0.0824     H
H       0.9969   0.0732   0.5044     H
C       0.9973   0.7472  0.64708     C
C        0.998   0.0408   0.6017     C
N        0.998   0.8152  0.63221     N
C       0.9983   0.3313   0.4932     C
C       0.9992   0.6993  0.99525     C
N       0.9998   0.9518  0.69654     N
