data_I
_chemical_name_common  '/home/zhangsd/repos/MofS-CGCNN/ML/data/WS24/clean_cifs/KUFTAI'
_cell_length_a 14.90800
_cell_length_b 15.34500
_cell_length_c 27.75300
_cell_angle_alpha 90.00000
_cell_angle_beta  90.42400
_cell_angle_gamma 90.00000
_space_group_name_H-M_alt      'P 1'


loop_
_space_group_symop_operation_xyz
  'x, y, z' 

loop_
_atom_site_label
_atom_site_fract_x
_atom_site_fract_y
_atom_site_fract_z
_atom_site_type_symbol
C       0.0141   0.2691  0.31938     C
C       0.0141   0.7309  0.81938     C
C       0.0239   0.1475  0.11207     C
C       0.0239   0.8525  0.61207     C
H       0.0285   0.3112   0.2955     H
H       0.0285   0.6888   0.7955     H
H       0.0374   0.1046   0.0885     H
H       0.0374   0.8954   0.5885     H
C       0.0644   0.1713  0.38104     C
C       0.0644   0.8287  0.88104     C
C        0.075   0.2466  0.17369     C
C        0.075   0.7534  0.67369     C
C       0.0825   0.2321  0.34613     C
C       0.0825   0.7679  0.84613     C
C       0.0939   0.1846  0.13872     C
C       0.0939   0.8154  0.63872     C
H       0.0955   0.0226   0.3322     H
H       0.0955   0.9774   0.8322     H
H       0.1115   0.3012   0.4425     H
H       0.1115   0.6988   0.9425     H
O      0.13045   0.3555  0.22765     O
O      0.13045   0.6445  0.72765     O
C       0.1365   0.1305  0.40997     C
C       0.1365   0.8695  0.90997     C
C       0.1378   0.0021   0.3553     C
C       0.1378   0.9979   0.8553     C
H       0.1429   0.2488   0.3403     H
H       0.1429   0.7512   0.8403     H
C       0.1492   0.2892  0.20064     C
C       0.1492   0.7108  0.70064     C
C       0.1537   0.2653    0.459     C
C       0.1537   0.7347    0.959     C
H       0.1541   0.1676    0.133     H
H       0.1541   0.8324    0.633     H
C       0.1636   0.0477  0.39804     C
C       0.1636   0.9523  0.89804     C
C       0.1722   0.1755  0.44803     C
C       0.1722   0.8245  0.94803     C
H       0.1763   0.1145   0.8275     H
H       0.1763   0.8855   0.3275     H
H         0.18   0.2806   0.8933     H
H         0.18   0.7194   0.3933     H
C        0.181   0.0725  0.85255     C
C        0.181   0.9275  0.35255     C
H       0.1909   0.4037   0.8459     H
H       0.1909   0.5963   0.3459     H
H       0.2037   0.3031   0.6061     H
H       0.2037   0.6969   0.1061     H
C       0.2051     0.29  0.49592     C
C       0.2051     0.71  0.99592     C
H       0.2071   0.3464   0.5101     H
H       0.2071   0.6536   0.0101     H
H       0.2258   0.4274   0.6512     H
H       0.2258   0.5726   0.1512     H
N       0.2266   0.0031   0.9218     N
N       0.2266   0.9969   0.4218     N
O       0.2271   0.2619  0.19713     O
O       0.2271   0.7381  0.69713     O
C        0.231   0.2879   0.8733     C
C        0.231   0.7121   0.3733     C
C       0.2362   0.0776  0.89435     C
C       0.2362   0.9224  0.39435     C
N       0.2365   0.1452  0.48083     N
N       0.2365   0.8548  0.98083     N
C       0.2375   0.3615   0.8456     C
C       0.2375   0.6385   0.3456     C
C       0.2568   0.2157   0.5103     C
C       0.2568   0.7843   0.0103     C
O       0.2585   0.4896  0.28633     O
O       0.2585   0.5104  0.78633     O
C       0.2609   0.3304   0.6061     C
C       0.2609   0.6696   0.1061     C
Fe     0.26858  0.37803  0.24476    Fe
Fe     0.26858  0.62197  0.74476    Fe
C       0.2746   0.4041  0.63355     C
C       0.2746   0.5959  0.13355     C
Mn     0.27614  0.02189   0.4883    Mn
Mn     0.27614  0.97811   0.9883    Mn
O       0.2864   0.2876  0.30565     O
O       0.2864   0.7124  0.80565     O
C       0.2885    0.148  0.90716     C
C       0.2885    0.852  0.40716     C
C       0.2954   0.2251  0.87316     C
C       0.2954   0.7749  0.37316     C
O       0.2988    0.444  0.18396     O
O       0.2988    0.556  0.68396     O
C       0.3119   0.3744  0.81697     C
C       0.3119   0.6256  0.31697     C
C       0.3153   0.2137  0.54897     C
C       0.3153   0.7863  0.04897     C
H       0.3191   0.1777   0.3689     H
H       0.3191   0.8223   0.8689     H
C       0.3247   0.4575  0.78895     C
C       0.3247   0.5425  0.28895     C
C       0.3291   0.2952  0.57846     C
C       0.3291   0.7048  0.07846     C
C       0.3375   0.1537  0.94906     C
C       0.3375   0.8463  0.44906     C
N       0.3451     0.09  0.98522     N
N       0.3451     0.91  0.48522     N
N       0.3556   0.0601  0.54241     N
N       0.3556   0.9399  0.04241     N
C       0.3558   0.4446  0.63617     C
C       0.3558   0.5554  0.13617     C
C        0.359   0.1405  0.56404     C
C        0.359   0.8595  0.06404     C
C       0.3661   0.2368  0.84386     C
C       0.3661   0.7632  0.34386     C
C       0.3693   0.4793  0.16825     C
C       0.3693   0.5207  0.66825     C
H       0.3698   0.1897   0.1334     H
H       0.3698   0.8103   0.6334     H
C       0.3699   0.2884  0.30256     C
C       0.3699   0.7116  0.80256     C
C       0.3758     0.31  0.81645     C
C       0.3758     0.69  0.31645     C
C       0.3827   0.1805  0.36831     C
C       0.3827   0.8195  0.86831     C
C       0.3854   0.2293   0.9649     C
C       0.3854   0.7707   0.4649     C
H       0.3921   0.2821   0.9474     H
H       0.3921   0.7179   0.4474     H
C       0.3965   0.1258  0.02193     C
C       0.3965   0.8742  0.52193     C
O       0.3995  0.46695  0.76897     O
O       0.3995  0.53305  0.26897     O
H       0.4032   0.0937   0.4213     H
H       0.4032   0.9063   0.9213     H
C       0.4059   0.0053  0.57172     C
C       0.4059   0.9947  0.07172     C
O      0.40616  0.33566  0.26996     O
O      0.40616  0.66434  0.76996     O
C       0.4091    0.337  0.57972     C
C       0.4091    0.663  0.07972     C
H       0.4106   0.1926   0.8422     H
H       0.4106   0.8074   0.3422     H
C       0.4129   0.1349  0.60798     C
C       0.4129   0.8651  0.10798     C
C       0.4195   0.2122  0.00911     C
C       0.4195   0.7878  0.50911     C
C       0.4224   0.0857  0.06214     C
C       0.4224   0.9143  0.56214     C
C       0.4239    0.412   0.6088     C
C       0.4239    0.588   0.1088     C
C       0.4253   0.2334  0.33597     C
C       0.4253   0.7666  0.83597     C
H       0.4267   0.1814   0.6294     H
H       0.4267   0.8186   0.1294     H
H       0.4273   0.3164   0.7968     H
H       0.4273   0.6836   0.2968     H
C        0.433   0.1317   0.3997     C
C        0.433   0.8683   0.8997     C
C       0.4335   0.1873  0.13239     C
C       0.4335   0.8127  0.63239     C
C       0.4393   0.0517  0.61251     C
C       0.4393   0.9483  0.11251     C
O       0.4475   0.4552  0.17727     O
O       0.4475   0.5448  0.67727     O
H       0.4531   0.2713   0.1876     H
H       0.4531   0.7287   0.6876     H
H       0.4533   0.2516   0.0284     H
H       0.4533   0.7484   0.5284     H
H       0.4569   0.3155   0.5606     H
H       0.4569   0.6845   0.0606     H
H       0.4739   0.0281   0.6382     H
H       0.4739   0.9719   0.1382     H
C       0.4741   0.1356  0.09893     C
C       0.4741   0.8644  0.59893     C
H       0.4811   0.4394   0.6092     H
H       0.4811   0.5606   0.1092     H
C       0.4829   0.2359  0.16471     C
C       0.4829   0.7641  0.66471     C
Fe         0.5  0.44088     0.25    Fe
Fe         0.5  0.55912     0.75    Fe
C       0.5171   0.2359  0.33529     C
C       0.5171   0.7641  0.83529     C
H       0.5189   0.4394   0.8908     H
H       0.5189   0.5606   0.3908     H
C       0.5259   0.1356  0.40107     C
C       0.5259   0.8644  0.90107     C
H       0.5261   0.0281   0.8618     H
H       0.5261   0.9719   0.3618     H
H       0.5431   0.3155   0.9394     H
H       0.5431   0.6845   0.4394     H
H       0.5467   0.2516   0.4716     H
H       0.5467   0.7484   0.9716     H
H       0.5469   0.2713   0.3124     H
H       0.5469   0.7287   0.8124     H
O       0.5525   0.4552  0.32273     O
O       0.5525   0.5448  0.82273     O
C       0.5607   0.0517  0.88749     C
C       0.5607   0.9483  0.38749     C
C       0.5665   0.1873  0.36761     C
C       0.5665   0.8127  0.86761     C
C        0.567   0.1317   0.1003     C
C        0.567   0.8683   0.6003     C
H       0.5727   0.3164   0.7032     H
H       0.5727   0.6836   0.2032     H
H       0.5733   0.1814   0.8706     H
H       0.5733   0.8186   0.3706     H
C       0.5747   0.2334  0.16403     C
C       0.5747   0.7666  0.66403     C
C       0.5761    0.412   0.8912     C
C       0.5761    0.588   0.3912     C
C       0.5776   0.0857  0.43786     C
C       0.5776   0.9143  0.93786     C
C       0.5805   0.2122  0.49089     C
C       0.5805   0.7878  0.99089     C
C       0.5871   0.1349  0.89202     C
C       0.5871   0.8651  0.39202     C
H       0.5894   0.1926   0.6578     H
H       0.5894   0.8074   0.1578     H
C       0.5909    0.337  0.92028     C
C       0.5909    0.663  0.42028     C
O      0.59384  0.33566  0.23004     O
O      0.59384  0.66434  0.73004     O
C       0.5941   0.0053  0.92828     C
C       0.5941   0.9947  0.42828     C
H       0.5968   0.0937   0.0787     H
H       0.5968   0.9063   0.5787     H
O       0.6005  0.46695  0.73103     O
O       0.6005  0.53305  0.23103     O
C       0.6035   0.1258  0.47807     C
C       0.6035   0.8742  0.97807     C
H       0.6079   0.2821   0.5526     H
H       0.6079   0.7179   0.0526     H
C       0.6146   0.2293   0.5351     C
C       0.6146   0.7707   0.0351     C
C       0.6173   0.1805  0.13169     C
C       0.6173   0.8195  0.63169     C
C       0.6242     0.31  0.68355     C
C       0.6242     0.69  0.18355     C
C       0.6301   0.2884  0.19744     C
C       0.6301   0.7116  0.69744     C
H       0.6302   0.1897   0.3666     H
H       0.6302   0.8103   0.8666     H
C       0.6307   0.4793  0.33175     C
C       0.6307   0.5207  0.83175     C
C       0.6339   0.2368  0.65614     C
C       0.6339   0.7632  0.15614     C
C        0.641   0.1405  0.93596     C
C        0.641   0.8595  0.43596     C
C       0.6442   0.4446  0.86383     C
C       0.6442   0.5554  0.36383     C
N       0.6444   0.0601  0.95759     N
N       0.6444   0.9399  0.45759     N
N       0.6549     0.09  0.51478     N
N       0.6549     0.91  0.01478     N
C       0.6625   0.1537  0.55094     C
C       0.6625   0.8463  0.05094     C
C       0.6709   0.2952  0.92154     C
C       0.6709   0.7048  0.42154     C
C       0.6753   0.4575  0.71105     C
C       0.6753   0.5425  0.21105     C
H       0.6809   0.1777   0.1311     H
H       0.6809   0.8223   0.6311     H
C       0.6847   0.2137  0.95103     C
C       0.6847   0.7863  0.45103     C
C       0.6881   0.3744  0.68303     C
C       0.6881   0.6256  0.18303     C
O       0.7012    0.444  0.31604     O
O       0.7012    0.556  0.81604     O
C       0.7046   0.2251  0.62684     C
C       0.7046   0.7749  0.12684     C
C       0.7115    0.148  0.59284     C
C       0.7115    0.852  0.09284     C
O       0.7136   0.2876  0.19435     O
O       0.7136   0.7124  0.69435     O
Mn     0.72386  0.02189   0.0117    Mn
Mn     0.72386  0.97811   0.5117    Mn
C       0.7254   0.4041  0.86645     C
C       0.7254   0.5959  0.36645     C
Fe     0.73142  0.37803  0.25524    Fe
Fe     0.73142  0.62197  0.75524    Fe
C       0.7391   0.3304   0.8939     C
C       0.7391   0.6696   0.3939     C
O       0.7415   0.4896  0.21367     O
O       0.7415   0.5104  0.71367     O
C       0.7432   0.2157   0.9897     C
C       0.7432   0.7843   0.4897     C
C       0.7625   0.3615   0.6544     C
C       0.7625   0.6385   0.1544     C
N       0.7635   0.1452  0.01917     N
N       0.7635   0.8548  0.51917     N
C       0.7638   0.0776  0.60565     C
C       0.7638   0.9224  0.10565     C
C        0.769   0.2879   0.6267     C
C        0.769   0.7121   0.1267     C
O       0.7729   0.2619  0.30287     O
O       0.7729   0.7381  0.80287     O
N       0.7734   0.0031   0.5782     N
N       0.7734   0.9969   0.0782     N
H       0.7742   0.4274   0.8488     H
H       0.7742   0.5726   0.3488     H
H       0.7929   0.3464   0.9899     H
H       0.7929   0.6536   0.4899     H
C       0.7949     0.29  0.00408     C
C       0.7949     0.71  0.50408     C
H       0.7963   0.3031   0.8939     H
H       0.7963   0.6969   0.3939     H
H       0.8091   0.4037   0.6541     H
H       0.8091   0.5963   0.1541     H
C        0.819   0.0725  0.64745     C
C        0.819   0.9275  0.14745     C
H         0.82   0.2806   0.6067     H
H         0.82   0.7194   0.1067     H
H       0.8237   0.1145   0.6725     H
H       0.8237   0.8855   0.1725     H
C       0.8278   0.1755  0.05197     C
C       0.8278   0.8245  0.55197     C
C       0.8364   0.0477  0.10196     C
C       0.8364   0.9523  0.60196     C
H       0.8459   0.1676    0.367     H
H       0.8459   0.8324    0.867     H
C       0.8463   0.2653    0.041     C
C       0.8463   0.7347    0.541     C
C       0.8508   0.2892  0.29936     C
C       0.8508   0.7108  0.79936     C
H       0.8571   0.2488   0.1597     H
H       0.8571   0.7512   0.6597     H
C       0.8622   0.0021   0.1447     C
C       0.8622   0.9979   0.6447     C
C       0.8635   0.1305  0.09003     C
C       0.8635   0.8695  0.59003     C
O      0.86955   0.3555  0.27235     O
O      0.86955   0.6445  0.77235     O
H       0.8885   0.3012   0.0575     H
H       0.8885   0.6988   0.5575     H
H       0.9045   0.0226   0.1678     H
H       0.9045   0.9774   0.6678     H
C       0.9061   0.1846  0.36128     C
C       0.9061   0.8154  0.86128     C
C       0.9175   0.2321  0.15387     C
C       0.9175   0.7679  0.65387     C
C        0.925   0.2466  0.32631     C
C        0.925   0.7534  0.82631     C
C       0.9356   0.1713  0.11896     C
C       0.9356   0.8287  0.61896     C
H       0.9626   0.1046   0.4115     H
H       0.9626   0.8954   0.9115     H
H       0.9715   0.3112   0.2045     H
H       0.9715   0.6888   0.7045     H
C       0.9761   0.1475  0.38793     C
C       0.9761   0.8525  0.88793     C
C       0.9859   0.2691  0.18062     C
C       0.9859   0.7309  0.68062     C
