data_I
_chemical_name_common  '/home/zhangsd/repos/MofS-CGCNN/ML/data/WS24/clean_cifs/LAVTEJ'
_cell_length_a 10.32000
_cell_length_b 10.32000
_cell_length_c 14.50000
_cell_angle_alpha 90.00000
_cell_angle_beta  90.00000
_cell_angle_gamma 90.00000
_space_group_name_H-M_alt      'P 1'


loop_
_space_group_symop_operation_xyz
  'x, y, z' 

loop_
_atom_site_label
_atom_site_fract_x
_atom_site_fract_y
_atom_site_fract_z
_atom_site_type_symbol
H          0.0   0.1029      0.0     H
C          0.0    0.193      0.0     C
C          0.0   0.3896      0.5     C
C          0.0   0.4627      0.0     C
C          0.0   0.5373      0.5     C
C          0.0   0.6104      0.0     C
C          0.0    0.807      0.5     C
H          0.0   0.8971      0.5     H
C       0.0431   0.3958   0.0773     C
C       0.0431   0.6042   0.4227     C
C       0.0436   0.2609   0.0771     C
C       0.0436   0.7391   0.4229     C
O       0.0693   0.1096   0.5986     O
O       0.0693   0.8904   0.9014     O
O       0.0709   0.3364   0.4416     O
O       0.0709   0.6636   0.0584     O
H       0.0715   0.4411   0.1289     H
H       0.0715   0.5589   0.3711     H
C        0.087   0.1854   0.1611     C
C        0.087   0.8146   0.3389     C
O       0.0952   0.2436   0.2357     O
O       0.0952   0.7564   0.2643     O
H       0.1029      0.0     0.75     H
O       0.1096   0.0693   0.1514     O
O       0.1096   0.9307   0.3486     O
Dy     0.14787  0.14787    0.375    Dy
Dy     0.14787  0.85213    0.125    Dy
C       0.1854    0.087   0.5889     C
C       0.1854    0.913   0.9111     C
C        0.193      0.0     0.75     C
O       0.2436   0.0952   0.5143     O
O       0.2436   0.9048   0.9857     O
C       0.2609   0.0436   0.6729     C
C       0.2609   0.9564   0.8271     C
O       0.3364   0.0709   0.3084     O
O       0.3364   0.9291   0.1916     O
C       0.3896      0.0     0.25     C
C       0.3958   0.0431   0.6727     C
C       0.3958   0.9569   0.8273     C
H       0.4411   0.0715   0.6211     H
H       0.4411   0.9285   0.8789     H
C       0.4627      0.0     0.75     C
C       0.5373      0.0     0.25     C
H       0.5589   0.0715   0.3789     H
H       0.5589   0.9285   0.1211     H
C       0.6042   0.0431   0.3273     C
C       0.6042   0.9569   0.1727     C
C       0.6104      0.0     0.75     C
O       0.6636   0.0709   0.6916     O
O       0.6636   0.9291   0.8084     O
C       0.7391   0.0436   0.3271     C
C       0.7391   0.9564   0.1729     C
O       0.7564   0.0952   0.4857     O
O       0.7564   0.9048   0.0143     O
C        0.807      0.0     0.25     C
C       0.8146    0.087   0.4111     C
C       0.8146    0.913   0.0889     C
Dy     0.85213  0.14787    0.625    Dy
Dy     0.85213  0.85213    0.875    Dy
O       0.8904   0.0693   0.8486     O
O       0.8904   0.9307   0.6514     O
H       0.8971      0.0     0.25     H
O       0.9048   0.2436   0.7643     O
O       0.9048   0.7564   0.7357     O
C        0.913   0.1854   0.8389     C
C        0.913   0.8146   0.6611     C
H       0.9285   0.4411   0.8711     H
H       0.9285   0.5589   0.6289     H
O       0.9291   0.3364   0.5584     O
O       0.9291   0.6636   0.9416     O
O       0.9307   0.1096   0.4014     O
O       0.9307   0.8904   0.0986     O
C       0.9564   0.2609   0.9229     C
C       0.9564   0.7391   0.5771     C
C       0.9569   0.3958   0.9227     C
C       0.9569   0.6042   0.5773     C
