data_I
_chemical_name_common  '/home/zhangsd/repos/MofS-CGCNN/ML/data/WS24/clean_cifs/LAZPIN'
_cell_length_a  8.01910
_cell_length_b 17.30500
_cell_length_c 23.30340
_cell_angle_alpha 90.00000
_cell_angle_beta  90.00000
_cell_angle_gamma 90.00000
_space_group_name_H-M_alt      'P 1'


loop_
_space_group_symop_operation_xyz
  'x, y, z' 

loop_
_atom_site_label
_atom_site_fract_x
_atom_site_fract_y
_atom_site_fract_z
_atom_site_type_symbol
Cu         0.0      0.0      0.5    Cu
Cu         0.0      0.5      0.0    Cu
C       0.0077  0.53738  0.34778     C
C       0.0077  0.96262  0.84778     C
N       0.0127  0.07746  0.56386     N
N       0.0127  0.42254  0.06386     N
O       0.0283  0.02954  0.86399     O
O       0.0283  0.47046  0.36399     O
C       0.0363  0.19319  0.64606     C
C       0.0363  0.30681  0.14606     C
C       0.0447  0.60034  0.39125     C
C       0.0447  0.89966  0.89125     C
C       0.0478   0.1627  0.02108     C
C       0.0478   0.3373  0.52108     C
O       0.0492  0.05822  0.20133     O
O       0.0492  0.44178  0.70133     O
O       0.0505  0.18312  0.35289     O
O       0.0505  0.31688  0.85289     O
C       0.0555  0.24309  0.18996     C
C       0.0555  0.25691  0.68996     C
O       0.0677  0.72345  0.28049     O
O       0.0677  0.77655  0.78049     O
C        0.075  0.11086  0.06564     C
C        0.075  0.38914  0.56564     C
C       0.0974   0.7066  0.48073     C
C       0.0974   0.7934  0.98073     C
C       0.1104  0.65236  0.86138     C
C       0.1104  0.84764  0.36138     C
H       0.1147   0.7422   0.5101     H
H       0.1147   0.7578   0.0101     H
C       0.1186   0.5955  0.90329     C
C       0.1186   0.9045  0.40329     C
H       0.1272   0.1681   0.9923     H
H       0.1272   0.3319   0.4923     H
La     0.13702  0.60329  0.21759    La
La     0.13702  0.89671  0.71759    La
C       0.1566  0.11519  0.57235     C
C       0.1566  0.38481  0.07235     C
C       0.1714   0.1743  0.61176     C
C       0.1714   0.3257  0.11176     C
C       0.1743  0.14032  0.34886     C
C       0.1743  0.35968  0.84886     C
O        0.184  0.56328  0.11347     O
O        0.184  0.93672  0.61347     O
H       0.1871   0.2255   0.4395     H
H       0.1871   0.2745   0.9395     H
O       0.1879  0.09135  0.30768     O
O       0.1879  0.40865  0.80768     O
C       0.1912  0.64414  0.39367     C
C       0.1912  0.85586  0.89367     C
O       0.1981  0.21429   0.1933     O
O       0.1981  0.28571   0.6933     O
H       0.2027   0.6629   0.8385     H
H       0.2027   0.8371   0.3385     H
O       0.2093  0.54577  0.01925     O
O       0.2093  0.95423  0.51925     O
C       0.2152  0.69662  0.43831     C
C       0.2152  0.80338  0.93831     C
H       0.2184    0.569   0.9087     H
H       0.2184    0.931   0.4087     H
H       0.2287   0.7012   0.6153     H
H       0.2287   0.7988   0.1153     H
C       0.2403  0.06948   0.0677     C
C       0.2403  0.43052   0.5677     C
H       0.2496   0.1011   0.5509     H
H       0.2496   0.3989   0.0509     H
H       0.2504   0.6011   0.5509     H
H       0.2504   0.8989   0.0509     H
C       0.2597  0.56948   0.0677     C
C       0.2597  0.93052   0.5677     C
H       0.2713   0.2012   0.6153     H
H       0.2713   0.2988   0.1153     H
H       0.2816    0.069   0.9087     H
H       0.2816    0.431   0.4087     H
C       0.2848  0.19662  0.43831     C
C       0.2848  0.30338  0.93831     C
O       0.2907  0.04577  0.01925     O
O       0.2907  0.45423  0.51925     O
H       0.2973   0.1629   0.8385     H
H       0.2973   0.3371   0.3385     H
O       0.3019  0.71429   0.1933     O
O       0.3019  0.78571   0.6933     O
C       0.3088  0.14414  0.39367     C
C       0.3088  0.35586  0.89367     C
O       0.3121  0.59135  0.30768     O
O       0.3121  0.90865  0.80768     O
H       0.3129   0.7255   0.4395     H
H       0.3129   0.7745   0.9395     H
O        0.316  0.06328  0.11347     O
O        0.316  0.43672  0.61347     O
C       0.3257  0.64032  0.34886     C
C       0.3257  0.85968  0.84886     C
C       0.3286   0.6743  0.61176     C
C       0.3286   0.8257  0.11176     C
C       0.3434  0.61519  0.57235     C
C       0.3434  0.88481  0.07235     C
La     0.36298  0.10329  0.21759    La
La     0.36298  0.39671  0.71759    La
H       0.3728   0.6681   0.9923     H
H       0.3728   0.8319   0.4923     H
C       0.3814   0.0955  0.90329     C
C       0.3814   0.4045  0.40329     C
H       0.3853   0.2422   0.5101     H
H       0.3853   0.2578   0.0101     H
C       0.3896  0.15236  0.86138     C
C       0.3896  0.34764  0.36138     C
C       0.4026   0.2066  0.48073     C
C       0.4026   0.2934  0.98073     C
C        0.425  0.61086  0.06564     C
C        0.425  0.88914  0.56564     C
O       0.4323  0.22345  0.28049     O
O       0.4323  0.27655  0.78049     O
C       0.4445  0.74309  0.18996     C
C       0.4445  0.75691  0.68996     C
O       0.4495  0.68312  0.35289     O
O       0.4495  0.81688  0.85289     O
O       0.4508  0.55822  0.20133     O
O       0.4508  0.94178  0.70133     O
C       0.4522   0.6627  0.02108     C
C       0.4522   0.8373  0.52108     C
C       0.4553  0.10034  0.39125     C
C       0.4553  0.39966  0.89125     C
C       0.4637  0.69319  0.64606     C
C       0.4637  0.80681  0.14606     C
O       0.4717  0.52954  0.86399     O
O       0.4717  0.97046  0.36399     O
N       0.4873  0.57746  0.56386     N
N       0.4873  0.92254  0.06386     N
C       0.4923  0.03738  0.34778     C
C       0.4923  0.46262  0.84778     C
Cu         0.5      0.0      0.0    Cu
Cu         0.5      0.5      0.5    Cu
C       0.5077  0.53738  0.15222     C
C       0.5077  0.96262  0.65222     C
N       0.5127  0.07746  0.93614     N
N       0.5127  0.42254  0.43614     N
O       0.5283  0.02954  0.63601     O
O       0.5283  0.47046  0.13601     O
C       0.5363  0.19319  0.85394     C
C       0.5363  0.30681  0.35394     C
C       0.5447  0.60034  0.10875     C
C       0.5447  0.89966  0.60875     C
C       0.5478   0.1627  0.47892     C
C       0.5478   0.3373  0.97892     C
O       0.5492  0.05822  0.29867     O
O       0.5492  0.44178  0.79867     O
O       0.5505  0.18312  0.14711     O
O       0.5505  0.31688  0.64711     O
C       0.5555  0.24309  0.31004     C
C       0.5555  0.25691  0.81004     C
O       0.5677  0.72345  0.21951     O
O       0.5677  0.77655  0.71951     O
C        0.575  0.11086  0.43436     C
C        0.575  0.38914  0.93436     C
C       0.5974   0.7066  0.01927     C
C       0.5974   0.7934  0.51927     C
C       0.6104  0.65236  0.63862     C
C       0.6104  0.84764  0.13862     C
H       0.6147   0.7422   0.9899     H
H       0.6147   0.7578   0.4899     H
C       0.6186   0.5955  0.59671     C
C       0.6186   0.9045  0.09671     C
H       0.6272   0.1681   0.5077     H
H       0.6272   0.3319   0.0077     H
La     0.63702  0.60329  0.28241    La
La     0.63702  0.89671  0.78241    La
C       0.6566  0.11519  0.92765     C
C       0.6566  0.38481  0.42765     C
C       0.6714   0.1743  0.88824     C
C       0.6714   0.3257  0.38824     C
C       0.6743  0.14032  0.15114     C
C       0.6743  0.35968  0.65114     C
O        0.684  0.56328  0.38653     O
O        0.684  0.93672  0.88653     O
H       0.6871   0.2255   0.0605     H
H       0.6871   0.2745   0.5605     H
O       0.6879  0.09135  0.19232     O
O       0.6879  0.40865  0.69232     O
C       0.6912  0.64414  0.10633     C
C       0.6912  0.85586  0.60633     C
O       0.6981  0.21429   0.3067     O
O       0.6981  0.28571   0.8067     O
H       0.7027   0.6629   0.6615     H
H       0.7027   0.8371   0.1615     H
O       0.7093  0.54577  0.48075     O
O       0.7093  0.95423  0.98075     O
C       0.7152  0.69662  0.06169     C
C       0.7152  0.80338  0.56169     C
H       0.7184    0.569   0.5913     H
H       0.7184    0.931   0.0913     H
H       0.7287   0.7012   0.8847     H
H       0.7287   0.7988   0.3847     H
C       0.7403  0.06948   0.4323     C
C       0.7403  0.43052   0.9323     C
H       0.7496   0.1011   0.9491     H
H       0.7496   0.3989   0.4491     H
H       0.7504   0.6011   0.9491     H
H       0.7504   0.8989   0.4491     H
C       0.7597  0.56948   0.4323     C
C       0.7597  0.93052   0.9323     C
H       0.7713   0.2012   0.8847     H
H       0.7713   0.2988   0.3847     H
H       0.7816    0.069   0.5913     H
H       0.7816    0.431   0.0913     H
C       0.7848  0.19662  0.06169     C
C       0.7848  0.30338  0.56169     C
O       0.7907  0.04577  0.48075     O
O       0.7907  0.45423  0.98075     O
H       0.7973   0.1629   0.6615     H
H       0.7973   0.3371   0.1615     H
O       0.8019  0.71429   0.3067     O
O       0.8019  0.78571   0.8067     O
C       0.8088  0.14414  0.10633     C
C       0.8088  0.35586  0.60633     C
O       0.8121  0.59135  0.19232     O
O       0.8121  0.90865  0.69232     O
H       0.8129   0.7255   0.0605     H
H       0.8129   0.7745   0.5605     H
O        0.816  0.06328  0.38653     O
O        0.816  0.43672  0.88653     O
C       0.8257  0.64032  0.15114     C
C       0.8257  0.85968  0.65114     C
C       0.8286   0.6743  0.88824     C
C       0.8286   0.8257  0.38824     C
C       0.8434  0.61519  0.92765     C
C       0.8434  0.88481  0.42765     C
La     0.86298  0.10329  0.28241    La
La     0.86298  0.39671  0.78241    La
H       0.8728   0.6681   0.5077     H
H       0.8728   0.8319   0.0077     H
C       0.8814   0.0955  0.59671     C
C       0.8814   0.4045  0.09671     C
H       0.8853   0.2422   0.9899     H
H       0.8853   0.2578   0.4899     H
C       0.8896  0.15236  0.63862     C
C       0.8896  0.34764  0.13862     C
C       0.9026   0.2066  0.01927     C
C       0.9026   0.2934  0.51927     C
C        0.925  0.61086  0.43436     C
C        0.925  0.88914  0.93436     C
O       0.9323  0.22345  0.21951     O
O       0.9323  0.27655  0.71951     O
C       0.9445  0.74309  0.31004     C
C       0.9445  0.75691  0.81004     C
O       0.9495  0.68312  0.14711     O
O       0.9495  0.81688  0.64711     O
O       0.9508  0.55822  0.29867     O
O       0.9508  0.94178  0.79867     O
C       0.9522   0.6627  0.47892     C
C       0.9522   0.8373  0.97892     C
C       0.9553  0.10034  0.10875     C
C       0.9553  0.39966  0.60875     C
C       0.9637  0.69319  0.85394     C
C       0.9637  0.80681  0.35394     C
O       0.9717  0.52954  0.63601     O
O       0.9717  0.97046  0.13601     O
N       0.9873  0.57746  0.93614     N
N       0.9873  0.92254  0.43614     N
C       0.9923  0.03738  0.15222     C
C       0.9923  0.46262  0.65222     C
