data_I
_chemical_name_common  '/home/zhangsd/repos/MofS-CGCNN/ML/data/WS24/clean_cifs/LAZPOT'
_cell_length_a  7.99050
_cell_length_b 17.24500
_cell_length_c 23.29870
_cell_angle_alpha 90.00000
_cell_angle_beta  90.00000
_cell_angle_gamma 90.00000
_space_group_name_H-M_alt      'P 1'


loop_
_space_group_symop_operation_xyz
  'x, y, z' 

loop_
_atom_site_label
_atom_site_fract_x
_atom_site_fract_y
_atom_site_fract_z
_atom_site_type_symbol
Cu         0.0      0.0      0.0    Cu
Cu         0.0      0.5      0.5    Cu
C       0.0101   0.5377  0.84725     C
C       0.0101   0.9623  0.34725     C
N       0.0126  0.07722  0.06404     N
N       0.0126  0.42278  0.56404     N
O       0.0284   0.0296  0.36349     O
O       0.0284   0.4704  0.86349     O
C       0.0369   0.1937  0.14652     C
C       0.0369   0.3063  0.64652     C
C       0.0456   0.1634  0.52147     C
C       0.0456   0.3366  0.02147     C
C       0.0468   0.6003  0.89103     C
C       0.0468   0.8997  0.39103     C
O        0.047   0.1836  0.85178     O
O        0.047   0.3164  0.35178     O
O       0.0475  0.05789  0.70195     O
O       0.0475  0.44211  0.20195     O
C       0.0546   0.2424  0.69022     C
C       0.0546   0.2576  0.19022     C
O       0.0681    0.723  0.78019     O
O       0.0681    0.777  0.28019     O
C       0.0738   0.1117  0.56607     C
C       0.0738   0.3883  0.06607     C
C       0.0998   0.7065  0.98026     C
C       0.0998   0.7935  0.48026     C
C       0.1109   0.6525  0.36144     C
C       0.1109   0.8475  0.86144     C
H       0.1177   0.7418   0.0098     H
H       0.1177   0.7582   0.5098     H
C       0.1197   0.5958  0.40291     C
C       0.1197   0.9042  0.90291     C
H       0.1251    0.169   0.4926     H
H       0.1251    0.331   0.9926     H
Ce     0.13837  0.60339  0.71803    Ce
Ce     0.13837  0.89661  0.21803    Ce
C       0.1573   0.1156  0.07268     C
C       0.1573   0.3844  0.57268     C
C       0.1716   0.1401  0.84833     C
C       0.1716   0.3599  0.34833     C
C       0.1728   0.1738  0.11225     C
C       0.1728   0.3262  0.61225     C
H       0.1834   0.2257    0.939     H
H       0.1834   0.2743    0.439     H
O       0.1845  0.56349  0.61445     O
O       0.1845  0.93651  0.11445     O
O       0.1858  0.09096  0.80702     O
O       0.1858  0.40904  0.30702     O
C       0.1943   0.6445  0.89341     C
C       0.1943   0.8555  0.39341     C
O       0.1986  0.21335  0.69302     O
O       0.1986  0.28665  0.19302     O
H       0.2037   0.6632   0.3387     H
H       0.2037   0.8368   0.8387     H
O       0.2087  0.54688  0.51966     O
O       0.2087  0.95312  0.01966     O
C       0.2186   0.6967  0.93777     C
C       0.2186   0.8033  0.43777     C
H       0.2201   0.5695   0.4083     H
H       0.2201   0.9305   0.9083     H
H        0.226   0.6999   0.1162     H
H        0.226   0.8001   0.6162     H
C       0.2396   0.0703   0.5682     C
C       0.2396   0.4297   0.0682     C
H       0.2497   0.6019   0.0509     H
H       0.2497   0.8981   0.5509     H
H       0.2503   0.1019   0.0509     H
H       0.2503   0.3981   0.5509     H
C       0.2604   0.5703   0.5682     C
C       0.2604   0.9297   0.0682     C
H        0.274   0.1999   0.1162     H
H        0.274   0.3001   0.6162     H
H       0.2799   0.0695   0.4083     H
H       0.2799   0.4305   0.9083     H
C       0.2814   0.1967  0.93777     C
C       0.2814   0.3033  0.43777     C
O       0.2913  0.04688  0.51966     O
O       0.2913  0.45312  0.01966     O
H       0.2963   0.1632   0.3387     H
H       0.2963   0.3368   0.8387     H
O       0.3014  0.71335  0.69302     O
O       0.3014  0.78665  0.19302     O
C       0.3057   0.1445  0.89341     C
C       0.3057   0.3555  0.39341     C
O       0.3142  0.59096  0.80702     O
O       0.3142  0.90904  0.30702     O
O       0.3155  0.06349  0.61445     O
O       0.3155  0.43651  0.11445     O
H       0.3166   0.7257    0.939     H
H       0.3166   0.7743    0.439     H
C       0.3272   0.6738  0.11225     C
C       0.3272   0.8262  0.61225     C
C       0.3284   0.6401  0.84833     C
C       0.3284   0.8599  0.34833     C
C       0.3427   0.6156  0.07268     C
C       0.3427   0.8844  0.57268     C
Ce     0.36163  0.10339  0.71803    Ce
Ce     0.36163  0.39661  0.21803    Ce
H       0.3749    0.669   0.4926     H
H       0.3749    0.831   0.9926     H
C       0.3803   0.0958  0.40291     C
C       0.3803   0.4042  0.90291     C
H       0.3823   0.2418   0.0098     H
H       0.3823   0.2582   0.5098     H
C       0.3891   0.1525  0.36144     C
C       0.3891   0.3475  0.86144     C
C       0.4002   0.2065  0.98026     C
C       0.4002   0.2935  0.48026     C
C       0.4262   0.6117  0.56607     C
C       0.4262   0.8883  0.06607     C
O       0.4319    0.223  0.78019     O
O       0.4319    0.277  0.28019     O
C       0.4454   0.7424  0.69022     C
C       0.4454   0.7576  0.19022     C
O       0.4525  0.55789  0.70195     O
O       0.4525  0.94211  0.20195     O
O        0.453   0.6836  0.85178     O
O        0.453   0.8164  0.35178     O
C       0.4532   0.1003  0.89103     C
C       0.4532   0.3997  0.39103     C
C       0.4544   0.6634  0.52147     C
C       0.4544   0.8366  0.02147     C
C       0.4631   0.6937  0.14652     C
C       0.4631   0.8063  0.64652     C
O       0.4716   0.5296  0.36349     O
O       0.4716   0.9704  0.86349     O
N       0.4874  0.57722  0.06404     N
N       0.4874  0.92278  0.56404     N
C       0.4899   0.0377  0.84725     C
C       0.4899   0.4623  0.34725     C
Cu         0.5      0.0      0.5    Cu
Cu         0.5      0.5      0.0    Cu
C       0.5101   0.5377  0.65275     C
C       0.5101   0.9623  0.15275     C
N       0.5126  0.07722  0.43596     N
N       0.5126  0.42278  0.93596     N
O       0.5284   0.0296  0.13651     O
O       0.5284   0.4704  0.63651     O
C       0.5369   0.1937  0.35348     C
C       0.5369   0.3063  0.85348     C
C       0.5456   0.1634  0.97853     C
C       0.5456   0.3366  0.47853     C
C       0.5468   0.6003  0.60897     C
C       0.5468   0.8997  0.10897     C
O        0.547   0.1836  0.64822     O
O        0.547   0.3164  0.14822     O
O       0.5475  0.05789  0.79805     O
O       0.5475  0.44211  0.29805     O
C       0.5546   0.2424  0.80978     C
C       0.5546   0.2576  0.30978     C
O       0.5681    0.723  0.71981     O
O       0.5681    0.777  0.21981     O
C       0.5738   0.1117  0.93393     C
C       0.5738   0.3883  0.43393     C
C       0.5998   0.7065  0.51974     C
C       0.5998   0.7935  0.01974     C
C       0.6109   0.6525  0.13856     C
C       0.6109   0.8475  0.63856     C
H       0.6177   0.7418   0.4902     H
H       0.6177   0.7582   0.9902     H
C       0.6197   0.5958  0.09709     C
C       0.6197   0.9042  0.59709     C
H       0.6251    0.169   0.0074     H
H       0.6251    0.331   0.5074     H
Ce     0.63837  0.60339  0.78197    Ce
Ce     0.63837  0.89661  0.28197    Ce
C       0.6573   0.1156  0.42732     C
C       0.6573   0.3844  0.92732     C
C       0.6716   0.1401  0.65167     C
C       0.6716   0.3599  0.15167     C
C       0.6728   0.1738  0.38775     C
C       0.6728   0.3262  0.88775     C
H       0.6834   0.2257    0.561     H
H       0.6834   0.2743    0.061     H
O       0.6845  0.56349  0.88555     O
O       0.6845  0.93651  0.38555     O
O       0.6858  0.09096  0.69298     O
O       0.6858  0.40904  0.19298     O
C       0.6943   0.6445  0.60659     C
C       0.6943   0.8555  0.10659     C
O       0.6986  0.21335  0.80698     O
O       0.6986  0.28665  0.30698     O
H       0.7037   0.6632   0.1613     H
H       0.7037   0.8368   0.6613     H
O       0.7087  0.54688  0.98034     O
O       0.7087  0.95312  0.48034     O
C       0.7186   0.6967  0.56223     C
C       0.7186   0.8033  0.06223     C
H       0.7201   0.5695   0.0917     H
H       0.7201   0.9305   0.5917     H
H        0.726   0.6999   0.3838     H
H        0.726   0.8001   0.8838     H
C       0.7396   0.0703   0.9318     C
C       0.7396   0.4297   0.4318     C
H       0.7497   0.6019   0.4491     H
H       0.7497   0.8981   0.9491     H
H       0.7503   0.1019   0.4491     H
H       0.7503   0.3981   0.9491     H
C       0.7604   0.5703   0.9318     C
C       0.7604   0.9297   0.4318     C
H        0.774   0.1999   0.3838     H
H        0.774   0.3001   0.8838     H
H       0.7799   0.0695   0.0917     H
H       0.7799   0.4305   0.5917     H
C       0.7814   0.1967  0.56223     C
C       0.7814   0.3033  0.06223     C
O       0.7913  0.04688  0.98034     O
O       0.7913  0.45312  0.48034     O
H       0.7963   0.1632   0.1613     H
H       0.7963   0.3368   0.6613     H
O       0.8014  0.71335  0.80698     O
O       0.8014  0.78665  0.30698     O
C       0.8057   0.1445  0.60659     C
C       0.8057   0.3555  0.10659     C
O       0.8142  0.59096  0.69298     O
O       0.8142  0.90904  0.19298     O
O       0.8155  0.06349  0.88555     O
O       0.8155  0.43651  0.38555     O
H       0.8166   0.7257    0.561     H
H       0.8166   0.7743    0.061     H
C       0.8272   0.6738  0.38775     C
C       0.8272   0.8262  0.88775     C
C       0.8284   0.6401  0.65167     C
C       0.8284   0.8599  0.15167     C
C       0.8427   0.6156  0.42732     C
C       0.8427   0.8844  0.92732     C
Ce     0.86163  0.10339  0.78197    Ce
Ce     0.86163  0.39661  0.28197    Ce
H       0.8749    0.669   0.0074     H
H       0.8749    0.831   0.5074     H
C       0.8803   0.0958  0.09709     C
C       0.8803   0.4042  0.59709     C
H       0.8823   0.2418   0.4902     H
H       0.8823   0.2582   0.9902     H
C       0.8891   0.1525  0.13856     C
C       0.8891   0.3475  0.63856     C
C       0.9002   0.2065  0.51974     C
C       0.9002   0.2935  0.01974     C
C       0.9262   0.6117  0.93393     C
C       0.9262   0.8883  0.43393     C
O       0.9319    0.223  0.71981     O
O       0.9319    0.277  0.21981     O
C       0.9454   0.7424  0.80978     C
C       0.9454   0.7576  0.30978     C
O       0.9525  0.55789  0.79805     O
O       0.9525  0.94211  0.29805     O
O        0.953   0.6836  0.64822     O
O        0.953   0.8164  0.14822     O
C       0.9532   0.1003  0.60897     C
C       0.9532   0.3997  0.10897     C
C       0.9544   0.6634  0.97853     C
C       0.9544   0.8366  0.47853     C
C       0.9631   0.6937  0.35348     C
C       0.9631   0.8063  0.85348     C
O       0.9716   0.5296  0.13651     O
O       0.9716   0.9704  0.63651     O
N       0.9874  0.57722  0.43596     N
N       0.9874  0.92278  0.93596     N
C       0.9899   0.0377  0.65275     C
C       0.9899   0.4623  0.15275     C
