data_I
_chemical_name_common  '/home/zhangsd/repos/MofS-CGCNN/ML/data/WS24/clean_cifs/LELCUB01'
_cell_length_a 18.53700
_cell_length_b 24.89520
_cell_length_c 34.92500
_cell_angle_alpha 90.00000
_cell_angle_beta  90.00000
_cell_angle_gamma 111.85800
_space_group_name_H-M_alt      'P 1'


loop_
_space_group_symop_operation_xyz
  'x, y, z' 

loop_
_atom_site_label
_atom_site_fract_x
_atom_site_fract_y
_atom_site_fract_z
_atom_site_type_symbol
C      0.00026  0.43012  0.76225     C
H       0.0008   0.0446   0.3753     H
H       0.0014   0.0934   0.6274     H
C      0.00165   0.4683  0.24857     C
C      0.00214  0.00428     0.25     C
C      0.00238  0.54876  0.36625     C
H        0.006    0.459   0.1239     H
Cu     0.00678  0.54636  0.96019    Cu
Cu     0.00699  0.08436  0.54481    Cu
C       0.0073   0.0592  0.13707     C
H       0.0081    0.609   0.1297     H
C      0.00812  0.90404  0.26079     C
Cu     0.00883  0.58608  0.04818    Cu
H       0.0091   0.1788   0.3828     H
Cu     0.00974  0.04754  0.45616    Cu
C      0.01002  0.77464  0.83808     C
N      0.01074  0.41608  0.56907     N
N      0.01093  0.34506  0.44828     N
C      0.01145   0.2919  0.66914     C
C       0.0131    0.762  0.16745     C
N      0.01327  0.62334  0.76474     N
Cu     0.01429  0.69484  0.77998    Cu
H        0.015   0.5668   0.3409     H
N      0.01576  0.91532  0.92855     N
C      0.01626  0.41152  0.60711     C
C      0.01721  0.90582  0.89081     C
H       0.0174    0.299   0.1302     H
N      0.01769  0.85278  0.05163     N
N      0.01944  0.09668  0.26209     N
C       0.0198    0.242  0.34361     C
Cu     0.02119  0.36062  0.50026    Cu
H       0.0217   0.5872   0.6537     H
C       0.0221   0.6414   0.6101     C
C      0.02295   0.3249  0.38698     C
C      0.02307  0.13554  0.89082     C
C      0.02608  0.80996  0.63337     C
H       0.0264   0.2588   0.5666     H
C      0.02651  0.95882  0.73048     C
C      0.02785   0.8355  0.11375     C
N      0.02825   0.1249  0.92824     N
N      0.02865   0.6289  0.57321     N
N      0.02882  0.76544  0.80218     N
C      0.02968  0.05936     0.75     C
N      0.03018  0.37316  0.55232     N
Cu     0.03068  0.16786  0.28254    Cu
Cu      0.0308   0.8669  0.99961    Cu
H       0.0317   0.0966   0.8408     H
H       0.0328   0.0834    0.159     H
C      0.03335   0.5317  0.25143     C
C      0.03457  0.43234  0.23117     C
Cu     0.03577  0.22062  0.72844    Cu
Cu      0.0378  0.04754  0.04384    Cu
H       0.0384   0.9734   0.8541     H
Cu     0.03958  0.54636  0.46019    Cu
N      0.03974  0.87568  0.94727     N
N      0.04047  0.15114  0.74347     N
C      0.04123  0.36686  0.61533     C
H       0.0419   0.7802   0.3631     H
N      0.04234  0.28748  0.70339     N
C      0.04241  0.30062  0.35201     C
H       0.0425   0.4876   0.6358     H
C      0.04254  0.86048  0.88425     C
C      0.04283  0.31826  0.42453     C
H       0.0429   0.7632   0.9412     H
H       0.0438   0.0446   0.1247     H
C      0.04432  0.27404  0.13899     C
H       0.0455   0.1526   0.6499     H
N      0.04569  0.62438  0.24583     N
Cu     0.04572   0.6945  0.22771    Cu
C      0.04638  0.54876  0.86625     C
H        0.047    0.541   0.3761     H
C      0.04715   0.8329  0.84752     C
N      0.04727  0.23574  0.30882     N
C      0.04896  0.34332  0.58002     C
H       0.0506   0.0834    0.341     H
C      0.05083  0.11806  0.63894     C
C      0.05088  0.81516  0.14951     C
C      0.05172  0.82864  0.07668     C
H       0.0518   0.5668   0.8409     H
C       0.0519   0.0592  0.36293     C
N      0.05286  0.75892  0.19903     N
H       0.0538   0.2988     0.87     H
C      0.05388  0.34516    0.653     C
H       0.0544    0.842   0.6506     H
H       0.0549   0.5124   0.8642     H
C      0.05611  0.84282  0.92064     C
C      0.05835   0.7561  0.34579     C
C      0.06003  0.28566  0.84422     C
C      0.06012  0.62044   0.1409     C
C      0.06032  0.62044   0.6409     C
H       0.0625   0.2586   0.1168     H
H       0.0632   0.8008   0.6172     H
H       0.0649   0.0966   0.6592     H
H        0.065   0.0266   0.3541     H
H       0.0655   0.5872   0.1537     H
C      0.06723  0.11806  0.86106     C
H       0.0674   0.4176    0.805     H
C      0.06769  0.04118  0.23048     C
H       0.0677   0.6514   0.1596     H
C      0.07014  0.56988  0.73775     C
H       0.0715    0.318   0.8262     H
C      0.07275   0.2935  0.57113     C
H       0.0745    0.274   0.4665     H
C      0.07543  0.44366  0.78303     C
N      0.07724  0.09668  0.23791     N
Cu     0.07725  0.58608  0.54818    Cu
Cu     0.07737  0.08436  0.95519    Cu
N      0.07869  0.62438  0.74583     N
N      0.07938  0.81756   0.7876     N
H       0.0829   0.4068    0.303     H
H       0.0837   0.6514   0.6596     H
N      0.08376  0.45212  0.97672     N
N      0.08405   0.9519  0.48185     N
H       0.0842   0.2526   0.4242     H
N      0.08437  0.97354  0.51807     N
C      0.08455   0.3287   0.3202     C
N       0.0851   0.4756  0.01268     N
H       0.0854   0.9442   0.6851     H
C      0.08612  0.79744  0.93204     C
H       0.0864   0.8928   0.2979     H
H       0.0875   0.7796   0.3244     H
N      0.08824  0.29028  0.29427     N
C      0.08827  0.91814  0.27612     C
H        0.089   0.2966   0.1549     H
C      0.09014  0.85848  0.81475     C
H        0.091   0.7838   0.0384     H
C      0.09106  0.28652  0.44024     C
H       0.0915   0.7398   0.3597     H
H        0.092   0.0934   0.8726     H
H       0.0936   0.9884    0.193     H
H       0.0943   0.4838   0.7919     H
N      0.09466  0.58392  0.93093     N
C      0.09534  0.97388  0.70497     C
N      0.09665   0.1249  0.57176     N
H       0.0997   0.4608   0.4288     H
N      0.10025   0.6289  0.07321     N
N      0.10044  0.08468  0.42855     N
H       0.1009    0.609   0.6297     H
H        0.102   0.2868   0.5928     H
C      0.10223  0.56766  0.26883     C
H       0.1028   0.2716   0.8441     H
C      0.10408  0.09596  0.76079     C
C      0.10474  0.58848  0.89289     C
H       0.1052   0.0116    0.693     H
H       0.1055   0.3024   0.5482     H
H       0.1056    0.771    0.082     H
N      0.10601  0.33822  0.70961     N
C      0.10657  0.80114  0.06379     C
H       0.1067   0.9412   0.8001     H
H       0.1071   0.1526   0.8501     H
H        0.109    0.981   0.0824     H
N       0.1095   0.5244  0.48732     N
H       0.1095   0.9586   0.2846     H
H       0.1099   0.4146   0.1953     H
C      0.11006  0.44792  0.21027     C
N      0.11007  0.62334  0.26474     N
H       0.1104   0.7868   0.9099     H
H       0.1105   0.5162   0.7081     H
N      0.11067  0.15114  0.75653     N
N      0.11083  0.02646  0.01807     N
C      0.11139  0.09418  0.39081     C
C      0.11245   0.3729  0.67918     C
C      0.11247  0.13554  0.60918     C
H       0.1138   0.4384   0.7657     H
C      0.11557  0.84434  0.17246     C
N      0.11638  0.80976  0.20196     N
H       0.1169   0.4806   0.1931     H
C       0.1193   0.6414   0.1101     C
C      0.12146  0.02612  0.20497     C
H       0.1215   0.9124    0.256     H
C      0.12172  0.39264  0.31327     C
H       0.1246   0.8124   0.9525     H
H        0.128    0.019   0.5824     H
H       0.1311   0.4018   0.9233     H
N      0.13164  0.54788  0.52328     N
C      0.13177  0.55634  0.71697     C
N      0.13215   0.0481  0.98185     N
Cu     0.13234   0.8157  0.74297    Cu
H       0.1339    0.902   0.4285     H
H       0.1363   0.5194   0.3069     H
Cu     0.13718  0.16786  0.21746    Cu
H       0.1389   0.5392   0.0712     H
C      0.13957  0.91994  0.80773     C
H       0.1408   0.9758     0.72     H
H       0.1412   0.0558   0.1851     H
H       0.1422   0.4124   0.3374     H
H       0.1459   0.3122   0.4403     H
Cu     0.14667  0.29334     0.25    Cu
H       0.1483   0.7398   0.8597     H
Cu     0.14878   0.6945  0.72771    Cu
H       0.1496    0.938    0.068     H
H       0.1498   0.5824    0.695     H
H       0.1509   0.0414   0.7846     H
H       0.1509     0.93   0.1595     H
H       0.1529   0.4588   0.2288     H
C      0.15421  0.47502  0.43695     C
C      0.15483  0.97866  0.06968     C
C      0.15679  0.46118  0.96636     C
N      0.15702  0.62684  0.94768     N
C      0.15783  0.96146  0.47205     C
C      0.15811  0.99642  0.53022     C
H       0.1594   0.8306   0.0624     H
C      0.15961  0.49822  0.02424     C
H         0.16   0.4564   0.6611     H
Cu     0.16057  0.63938  0.99974    Cu
C      0.16139  0.50178  0.47576     C
C      0.16169  0.00358  0.03022     C
C      0.16214  0.55208  0.28973     C
Cu      0.1639   0.1331  0.49961    Cu
N      0.16406  0.12432  0.44727     N
H       0.1642   0.4004   0.2948     H
N      0.16491  0.14722  0.55163     N
H        0.165   0.0242     0.22     H
H       0.1654    0.771    0.582     H
H       0.1655   0.0588   0.3001     H
N      0.16587  0.65494  0.05172     N
H       0.1663   0.3122   0.0597     H
H       0.1678    0.937   0.8312     H
H       0.1684   0.2526   0.0758     H
H       0.1688   0.2716   0.6559     H
H       0.1697   0.1788   0.1172     H
Cu     0.16991  0.33982     0.75    Cu
C      0.17013  0.08186  0.77612     C
H       0.1712   0.8306   0.5624     H
H       0.1721   0.4426   0.4379     H
C       0.1732   0.4388  0.92923     C
C      0.17429  0.93998  0.43405     C
H       0.1743   0.9674   0.4139     H
C      0.17437  0.63314  0.88467     C
H       0.1754   0.5616   0.7343     H
C      0.17589  0.90318  0.16719     C
H       0.1761   0.5932    0.197     H
C      0.17617  0.02134  0.56968     C
H       0.1764   0.7868   0.4099     H
H       0.1766   0.4668   0.9089     H
H       0.1768   0.9224   0.7873     H
C      0.17723  0.43006  0.67603     C
C      0.17919  0.52498  0.06305     C
Cu     0.18055  0.69484  0.27998    Cu
H       0.1819    0.496   0.0813     H
C      0.18206  0.13952  0.38425     C
Cu     0.18336   0.8157  0.24297    Cu
H       0.1848   0.2868   0.9072     H
Cu     0.18485  0.22062  0.77156    Cu
H       0.1859    0.504   0.4187     H
H       0.1878   0.8124   0.4525     H
N      0.18847  0.23574  0.19118     N
H       0.1896    0.902   0.6472     H
H       0.1921   0.7796   0.8244     H
C      0.19235   0.1645  0.61375     C
H       0.1927    0.446   0.7017     H
H       0.1928   0.7838   0.5384     H
N      0.19338  0.80976  0.70196     N
H       0.1936   0.1072   0.7979     H
H       0.1941   0.5412   0.2712     H
C      0.19457  0.80114  0.56379     C
H       0.1953   0.5854   0.3047     H
C      0.19546  0.28652  0.05976     C
C      0.19561  0.53882  0.53364     C
H       0.1961   0.2586   0.3832     H
C      0.19637  0.03854  0.97205     C
H       0.1969   0.3024   0.9518     H
C      0.19775   0.7561  0.84579     C
C      0.19805   0.6751  0.11302     C
H       0.1995    0.274   0.0335     H
H       0.2009   0.9994   0.5845     H
H       0.2015   0.0006   0.0845     H
N      0.20204  0.29028  0.20573     N
H       0.2036   0.5436   0.8389     H
H       0.2039   0.4254   0.8368     H
H        0.204   0.9164   0.1913     H
C      0.20564  0.65668  0.91998     C
N      0.20606  0.75892  0.69903     N
H       0.2069   0.0326   0.9139     H
C      0.20706  0.49072  0.99563     C
C      0.20721  0.99002  0.50158     C
H       0.2076   0.2966   0.3451     H
C      0.20872  0.65484    0.847     C
H       0.2091   0.0876    0.756     H
H       0.2098   0.5332   0.5911     H
H       0.2105    0.433    0.569     H
H       0.2113   0.9364   0.9349     H
C      0.21132  0.79744  0.43204     C
H       0.2116    0.062    0.568     H
H       0.2124    0.158   0.1506     H
H       0.2124    0.902   0.1472     H
H       0.2124   0.9164   0.6913     H
C      0.21329  0.15718  0.42064     C
C      0.21425   0.1671  0.34752     C
C      0.21612  0.19004  0.13337     C
C      0.21634  0.50928  0.50437     C
C      0.21719  0.00998  0.00158     C
H       0.2184    0.701   0.3698     H
C      0.21955   0.7081  0.83086     C
C      0.21963  0.08006  0.30773     C
H       0.2203   0.7632   0.4412     H
C      0.22075   0.2935  0.92887     C
H       0.2209     0.07   0.6595     H
H       0.2215   0.4254   0.6632     H
C       0.2222    0.242  0.15639     C
H       0.2225    0.433    0.931     H
C      0.22308  0.17136  0.57668     C
C      0.22457  0.68174  0.07547     C
H       0.2251   0.9364   0.4349     H
C      0.22563  0.28566  0.65578     C
C      0.22729  0.90318  0.66719     C
C      0.22877  0.84434  0.67246     C
C      0.22908  0.60736  0.18673     C
H       0.2293   0.5982   0.5767     H
H       0.2295   0.5574   0.0621     H
C      0.22972  0.27404  0.36101     C
H       0.2298   0.5876   0.1626     H
H       0.2308    0.063   0.3312     H
C      0.23166  0.14152  0.31475     C
H       0.2319    0.098   0.9285     H
N      0.23221  0.33822  0.79039     N
H       0.2324   0.2588   0.9334     H
C      0.23431  0.06002  0.93405     C
C       0.2344   0.5612  0.57077     C
C      0.23538  0.22536  0.33808     C
C      0.23572  0.18484  0.64951     C
H       0.2362   0.4004   0.2052     H
N      0.23662  0.76544  0.30218     N
H       0.2376   0.8008   0.1172     H
N      0.23818  0.81756   0.2876     N
H       0.2383   0.7802   0.8631     H
C      0.23955   0.6271  0.82082     C
C      0.24179  0.69938  0.14799     C
C      0.24415   0.3287   0.1798     C
H        0.245   0.2988     0.63     H
N      0.24514  0.28748  0.79661     N
H       0.2456   0.9224   0.2873     H
H       0.2465    0.318   0.6738     H
H       0.2467    0.554   0.7983     H
C      0.24717  0.56994  0.82397     C
C       0.2489    0.762  0.66745     C
C       0.2511    0.238  0.66745     C
C      0.25283  0.43006  0.82397     C
H       0.2533    0.446   0.7983     H
H       0.2535    0.682   0.6738     H
H       0.2544   0.0776   0.2873     H
N      0.25486  0.71252  0.79661     N
H        0.255   0.7012     0.63     H
C      0.25585   0.6713   0.1798     C
C      0.25821  0.30062  0.14799     C
C      0.26045   0.3729  0.82082     C
H       0.2617   0.2198   0.8631     H
N      0.26182  0.18244   0.2876     N
H       0.2624   0.1992   0.1172     H
N      0.26338  0.23456  0.30218     N
H       0.2638   0.5996   0.2052     H
C      0.26428  0.81516  0.64951     C
C      0.26462  0.77464  0.33808     C
C       0.2656   0.4388  0.57077     C
C      0.26569  0.93998  0.93405     C
H       0.2676   0.7412   0.9334     H
N      0.26779  0.66178  0.79039     N
H       0.2681    0.902   0.9285     H
C      0.26834  0.85848  0.31475     C
H       0.2692    0.937   0.3312     H
H       0.2702   0.4124   0.1626     H
C      0.27028  0.72596  0.36101     C
H       0.2705   0.4426   0.0621     H
H       0.2707   0.4018   0.5767     H
C      0.27092  0.39264  0.18673     C
C      0.27123  0.15566  0.67246     C
C      0.27271  0.09682  0.66719     C
C      0.27437  0.71434  0.65578     C
H       0.2749   0.0636   0.4349     H
C      0.27543  0.31826  0.07547     C
C      0.27692  0.82864  0.57668     C
H       0.2775    0.567    0.931     H
C       0.2778    0.758  0.15639     C
H       0.2785   0.5746   0.6632     H
H       0.2791     0.93   0.6595     H
C      0.27925   0.7065  0.92887     C
H       0.2797   0.2368   0.4412     H
C      0.28037  0.91994  0.30773     C
C      0.28045   0.2919  0.83086     C
H       0.2816    0.299   0.3698     H
C      0.28281  0.99002  0.00158     C
C      0.28366  0.49072  0.50437     C
C      0.28388  0.80996  0.13337     C
C      0.28575   0.8329  0.34752     C
C      0.28671  0.84282  0.42064     C
H       0.2876   0.0836   0.6913     H
H       0.2876    0.098   0.1472     H
H       0.2876    0.842   0.1506     H
H       0.2884    0.938    0.568     H
C      0.28868  0.20256  0.43204     C
H       0.2887   0.0636   0.9349     H
H       0.2895    0.567    0.569     H
H       0.2902   0.4668   0.5911     H
H       0.2909   0.9124    0.756     H
C      0.29128  0.34516    0.847     C
H       0.2924   0.7034   0.3451     H
C      0.29279  0.00998  0.50158     C
C      0.29294  0.50928  0.99563     C
H       0.2931   0.9674   0.9139     H
N      0.29394  0.24108  0.69903     N
C      0.29436  0.34332  0.91998     C
H        0.296   0.0836   0.1913     H
H       0.2961   0.5746   0.8368     H
H       0.2964   0.4564   0.8389     H
N      0.29796  0.70972  0.20573     N
H       0.2985   0.9994   0.0845     H
H       0.2991   0.0006   0.5845     H
H       0.3005    0.726   0.0335     H
C      0.30195   0.3249  0.11302     C
C      0.30225   0.2439  0.84579     C
H       0.3031   0.6976   0.9518     H
C      0.30363  0.96146  0.97205     C
H       0.3039   0.7414   0.3832     H
C      0.30439  0.46118  0.53364     C
C      0.30454  0.71348  0.05976     C
H       0.3047   0.4146   0.3047     H
C      0.30543  0.19886  0.56379     C
H       0.3059   0.4588   0.2712     H
H       0.3064   0.8928   0.7979     H
N      0.30662  0.19024  0.70196     N
H       0.3072   0.2162   0.5384     H
H       0.3073    0.554   0.7017     H
C      0.30765   0.8355  0.61375     C
H       0.3079   0.2204   0.8244     H
H       0.3104    0.098   0.6472     H
N      0.31153  0.76426  0.19118     N
H       0.3122   0.1876   0.4525     H
H       0.3141    0.496   0.4187     H
Cu     0.31515  0.77938  0.77156    Cu
H       0.3152   0.7132   0.9072     H
Cu     0.31664   0.1843  0.24297    Cu
C      0.31794  0.86048  0.38425     C
H       0.3181    0.504   0.0813     H
Cu     0.31945  0.30516  0.27998    Cu
C      0.32081  0.47502  0.06305     C
C      0.32277  0.56994  0.67603     C
H       0.3232   0.0776   0.7873     H
H       0.3234   0.5332   0.9089     H
H       0.3236   0.2132   0.4099     H
C      0.32383  0.97866  0.56968     C
H       0.3239   0.4068    0.197     H
C      0.32411  0.09682  0.16719     C
H       0.3246   0.4384   0.7343     H
C      0.32563  0.36686  0.88467     C
H       0.3257   0.0326   0.4139     H
C      0.32571  0.06002  0.43405     C
C       0.3268   0.5612  0.92923     C
H       0.3279   0.5574   0.4379     H
H       0.3288   0.1694   0.5624     H
C      0.32987  0.91814  0.77612     C
Cu     0.33009  0.66018     0.75    Cu
H       0.3303   0.8212   0.1172     H
H       0.3312   0.7284   0.6559     H
H       0.3316   0.7474   0.0758     H
H       0.3322    0.063   0.8312     H
H       0.3337   0.6878   0.0597     H
N      0.33413  0.34506  0.05172     N
H       0.3345   0.9412   0.3001     H
H       0.3346    0.229    0.582     H
H        0.335   0.9758     0.22     H
N      0.33509  0.85278  0.55163     N
H       0.3358   0.5996   0.2948     H
N      0.33594  0.87568  0.44727     N
Cu      0.3361   0.8669  0.49961    Cu
C      0.33786  0.44792  0.28973     C
C      0.33831  0.99642  0.03022     C
C      0.33861  0.49822  0.47576     C
Cu     0.33943  0.36062  0.99974    Cu
H         0.34   0.5436   0.6611     H
C      0.34039  0.50178  0.02424     C
H       0.3406   0.1694   0.0624     H
C      0.34189  0.00358  0.53022     C
C      0.34217  0.03854  0.47205     C
N      0.34298  0.37316  0.94768     N
C      0.34321  0.53882  0.96636     C
C      0.34517  0.02134  0.06968     C
C      0.34579  0.52498  0.43695     C
H       0.3471   0.5412   0.2288     H
H       0.3491     0.07   0.1595     H
H       0.3491   0.9586   0.7846     H
H       0.3502   0.4176    0.695     H
H       0.3504    0.062    0.068     H
Cu     0.35122   0.3055  0.72771    Cu
H       0.3517   0.2602   0.8597     H
Cu     0.35333  0.70666     0.25    Cu
H       0.3541   0.6878   0.4403     H
H       0.3578   0.5876   0.3374     H
H       0.3588   0.9442   0.1851     H
H       0.3592   0.0242     0.72     H
C      0.36043  0.08006  0.80773     C
H       0.3611   0.4608   0.0712     H
Cu     0.36282  0.83214  0.21746    Cu
H       0.3637   0.4806   0.3069     H
H       0.3661    0.098   0.4285     H
Cu     0.36766   0.1843  0.74297    Cu
N      0.36785   0.9519  0.98185     N
C      0.36823  0.44366  0.71697     C
N      0.36836  0.45212  0.52328     N
H       0.3689   0.5982   0.9233     H
H        0.372    0.981   0.5824     H
H       0.3754   0.1876   0.9525     H
C      0.37828  0.60736  0.31327     C
H       0.3785   0.0876    0.256     H
C      0.37854  0.97388  0.20497     C
C       0.3807   0.3586   0.1101     C
H       0.3831   0.5194   0.1931     H
N      0.38362  0.19024  0.20196     N
C      0.38443  0.15566  0.17246     C
H       0.3862   0.5616   0.7657     H
C      0.38753  0.86446  0.60918     C
C      0.38755   0.6271  0.67918     C
C      0.38861  0.90582  0.39081     C
N      0.38917  0.97354  0.01807     N
N      0.38933  0.84886  0.75653     N
H       0.3895   0.4838   0.7081     H
H       0.3896   0.2132   0.9099     H
N      0.38993  0.37666  0.26474     N
C      0.38994  0.55208  0.21027     C
H       0.3901   0.5854   0.1953     H
H       0.3905   0.0414   0.2846     H
N       0.3905   0.4756  0.48732     N
H        0.391    0.019   0.0824     H
H       0.3929   0.8474   0.8501     H
H       0.3933   0.0588   0.8001     H
C      0.39343  0.19886  0.06379     C
N      0.39399  0.66178  0.70961     N
H       0.3944    0.229    0.082     H
H       0.3945   0.6976   0.5482     H
H       0.3948   0.9884    0.693     H
C      0.39526  0.41152  0.89289     C
C      0.39592  0.90404  0.76079     C
H       0.3972   0.7284   0.8441     H
C      0.39777  0.43234  0.26883     C
H        0.398   0.7132   0.5928     H
H       0.3991    0.391   0.6297     H
N      0.39956  0.91532  0.42855     N
N      0.39975   0.3711  0.07321     N
H       0.4003   0.5392   0.4288     H
N      0.40335   0.8751  0.57176     N
C      0.40466  0.02612  0.70497     C
N      0.40534  0.41608  0.93093     N
H       0.4057   0.5162   0.7919     H
H       0.4064   0.0116    0.193     H
H        0.408   0.9066   0.8726     H
H       0.4085   0.2602   0.3597     H
C      0.40894  0.71348  0.44024     C
H        0.409   0.2162   0.0384     H
C      0.40986  0.14152  0.81475     C
H        0.411   0.7034   0.1549     H
C      0.41173  0.08186  0.27612     C
N      0.41176  0.70972  0.29427     N
H       0.4125   0.2204   0.3244     H
H       0.4136   0.1072   0.2979     H
C      0.41388  0.20256  0.93204     C
H       0.4146   0.0558   0.6851     H
N       0.4149   0.5244  0.01268     N
C      0.41545   0.6713   0.3202     C
N      0.41563  0.02646  0.51807     N
H       0.4158   0.7474   0.4242     H
N      0.41595   0.0481  0.48185     N
N      0.41624  0.54788  0.97672     N
H       0.4163   0.3486   0.6596     H
H       0.4171   0.5932    0.303     H
N      0.42062  0.18244   0.7876     N
N      0.42131  0.37562  0.74583     N
Cu     0.42263  0.91564  0.95519    Cu
Cu     0.42275  0.41392  0.54818    Cu
N      0.42276  0.90332  0.23791     N
C      0.42457  0.55634  0.78303     C
H       0.4255    0.726   0.4665     H
C      0.42725   0.7065  0.57113     C
H       0.4285    0.682   0.8262     H
C      0.42986  0.43012  0.73775     C
H       0.4323   0.3486   0.1596     H
C      0.43231  0.95882  0.23048     C
H       0.4326   0.5824    0.805     H
C      0.43277  0.88194  0.86106     C
H       0.4345   0.4128   0.1537     H
H        0.435   0.9734   0.3541     H
H       0.4351   0.9034   0.6592     H
H       0.4368   0.1992   0.6172     H
H       0.4375   0.7414   0.1168     H
C      0.43968  0.37956   0.6409     C
C      0.43988  0.37956   0.1409     C
C      0.43997  0.71434  0.84422     C
C      0.44165   0.2439  0.34579     C
C      0.44389  0.15718  0.92064     C
H       0.4451   0.4876   0.8642     H
H       0.4456    0.158   0.6506     H
C      0.44612  0.65484    0.653     C
H       0.4462   0.7012     0.87     H
N      0.44714  0.24108  0.19903     N
C       0.4481   0.9408  0.36293     C
H       0.4482   0.4332   0.8409     H
C      0.44828  0.17136  0.07668     C
C      0.44912  0.18484  0.14951     C
C      0.44917  0.88194  0.63894     C
H       0.4494   0.9166    0.341     H
C      0.45104  0.65668  0.58002     C
N      0.45273  0.76426  0.30882     N
C      0.45285   0.1671  0.84752     C
H        0.453    0.459   0.3761     H
C      0.45362  0.45124  0.86625     C
Cu     0.45428   0.3055  0.22771    Cu
N      0.45431  0.37562  0.24583     N
H       0.4545   0.8474   0.6499     H
C      0.45568  0.72596  0.13899     C
H       0.4562   0.9554   0.1247     H
H       0.4571   0.2368   0.9412     H
C      0.45717  0.68174  0.42453     C
C      0.45746  0.13952  0.88425     C
H       0.4575   0.5124   0.6358     H
C      0.45759  0.69938  0.35201     C
N      0.45766  0.71252  0.70339     N
H       0.4581   0.2198   0.3631     H
C      0.45877  0.63314  0.61533     C
N      0.45953  0.84886  0.74347     N
N      0.46026  0.12432  0.94727     N
Cu     0.46042  0.45364  0.46019    Cu
H       0.4616   0.0266   0.8541     H
Cu      0.4622  0.95246  0.04384    Cu
Cu     0.46423  0.77938  0.72844    Cu
C      0.46543  0.56766  0.23117     C
C      0.46665   0.4683  0.25143     C
H       0.4672   0.9166    0.159     H
H       0.4683   0.9034   0.8408     H
Cu      0.4692   0.1331  0.99961    Cu
Cu     0.46932  0.83214  0.28254    Cu
N      0.46982  0.62684  0.55232     N
C      0.47032  0.94064     0.75     C
N      0.47118  0.23456  0.80218     N
N      0.47135   0.3711  0.57321     N
N      0.47175   0.8751  0.92824     N
C      0.47215   0.1645  0.11375     C
C      0.47349  0.04118  0.73048     C
H       0.4736   0.7412   0.5666     H
C      0.47392  0.19004  0.63337     C
C      0.47693  0.86446  0.89082     C
C      0.47705   0.6751  0.38698     C
C       0.4779   0.3586   0.6101     C
H       0.4783   0.4128   0.6537     H
Cu     0.47881  0.63938  0.50026    Cu
C       0.4802    0.758  0.34361     C
N      0.48056  0.90332  0.26209     N
N      0.48231  0.14722  0.05163     N
H       0.4826    0.701   0.1302     H
C      0.48279  0.09418  0.89081     C
C      0.48374  0.58848  0.60711     C
N      0.48424  0.08468  0.92855     N
H        0.485   0.4332   0.3409     H
Cu     0.48571  0.30516  0.77998    Cu
N      0.48673  0.37666  0.76474     N
C       0.4869    0.238  0.16745     C
C      0.48855   0.7081  0.66914     C
N      0.48907  0.65494  0.44828     N
N      0.48926  0.58392  0.56907     N
C      0.48998  0.22536  0.83808     C
Cu     0.49026  0.95246  0.45616    Cu
H       0.4909   0.8212   0.3828     H
Cu     0.49117  0.41392  0.04818    Cu
C      0.49188  0.09596  0.26079     C
H       0.4919    0.391   0.1297     H
C       0.4927   0.9408  0.13707     C
Cu     0.49301  0.91564  0.54481    Cu
Cu     0.49322  0.45364  0.96019    Cu
H        0.494    0.541   0.1239     H
C      0.49762  0.45124  0.36625     C
C      0.49786  0.99572     0.25     C
C      0.49835   0.5317  0.24857     C
H       0.4986   0.9066   0.6274     H
H       0.4992   0.9554   0.3753     H
C      0.49974  0.56988  0.76225     C
C      0.50026  0.43012  0.23775     C
H       0.5008   0.0446   0.6247     H
H       0.5014   0.0934   0.3726     H
C      0.50165   0.4683  0.75143     C
C      0.50214  0.00428     0.75     C
C      0.50238  0.54876  0.63375     C
H        0.506    0.459   0.8761     H
Cu     0.50678  0.54636  0.03981    Cu
Cu     0.50699  0.08436  0.45519    Cu
C       0.5073   0.0592  0.86293     C
H       0.5081    0.609   0.8703     H
C      0.50812  0.90404  0.73921     C
Cu     0.50883  0.58608  0.95182    Cu
H       0.5091   0.1788   0.6172     H
Cu     0.50974  0.04754  0.54384    Cu
C      0.51002  0.77464  0.16192     C
N      0.51074  0.41608  0.43093     N
N      0.51093  0.34506  0.55172     N
C      0.51145   0.2919  0.33086     C
C       0.5131    0.762  0.83255     C
N      0.51327  0.62334  0.23526     N
Cu     0.51429  0.69484  0.22002    Cu
H        0.515   0.5668   0.6591     H
N      0.51576  0.91532  0.07145     N
C      0.51626  0.41152  0.39289     C
C      0.51721  0.90582  0.10919     C
H       0.5174    0.299   0.8698     H
N      0.51769  0.85278  0.94837     N
N      0.51944  0.09668  0.73791     N
C       0.5198    0.242  0.65639     C
Cu     0.52119  0.36062  0.49974    Cu
H       0.5217   0.5872   0.3463     H
C       0.5221   0.6414   0.3899     C
C      0.52295   0.3249  0.61302     C
C      0.52307  0.13554  0.10918     C
C      0.52608  0.80996  0.36663     C
H       0.5264   0.2588   0.4334     H
C      0.52651  0.95882  0.26952     C
C      0.52785   0.8355  0.88625     C
N      0.52825   0.1249  0.07176     N
N      0.52865   0.6289  0.42679     N
N      0.52882  0.76544  0.19782     N
C      0.52968  0.05936     0.25     C
N      0.53018  0.37316  0.44768     N
Cu     0.53068  0.16786  0.71746    Cu
Cu      0.5308   0.8669  0.00039    Cu
H       0.5317   0.0966   0.1592     H
H       0.5328   0.0834    0.841     H
C      0.53335   0.5317  0.74857     C
C      0.53457  0.43234  0.76883     C
Cu     0.53577  0.22062  0.27156    Cu
Cu      0.5378  0.04754  0.95616    Cu
H       0.5384   0.9734   0.1459     H
Cu     0.53958  0.54636  0.53981    Cu
N      0.53974  0.87568  0.05273     N
N      0.54047  0.15114  0.25653     N
C      0.54123  0.36686  0.38467     C
H       0.5419   0.7802   0.6369     H
N      0.54234  0.28748  0.29661     N
C      0.54241  0.30062  0.64799     C
H       0.5425   0.4876   0.3642     H
C      0.54254  0.86048  0.11575     C
C      0.54283  0.31826  0.57547     C
H       0.5429   0.7632   0.0588     H
H       0.5438   0.0446   0.8753     H
C      0.54432  0.27404  0.86101     C
H       0.5455   0.1526   0.3501     H
N      0.54569  0.62438  0.75417     N
Cu     0.54572   0.6945  0.77229    Cu
C      0.54638  0.54876  0.13375     C
H        0.547    0.541   0.6239     H
C      0.54715   0.8329  0.15248     C
N      0.54727  0.23574  0.69118     N
C      0.54896  0.34332  0.41998     C
H       0.5506   0.0834    0.659     H
C      0.55083  0.11806  0.36106     C
C      0.55088  0.81516  0.85049     C
C      0.55172  0.82864  0.92332     C
H       0.5518   0.5668   0.1591     H
C       0.5519   0.0592  0.63707     C
N      0.55286  0.75892  0.80097     N
H       0.5538   0.2988     0.13     H
C      0.55388  0.34516    0.347     C
H       0.5544    0.842   0.3494     H
H       0.5549   0.5124   0.1358     H
C      0.55611  0.84282  0.07936     C
C      0.55835   0.7561  0.65421     C
C      0.56003  0.28566  0.15578     C
C      0.56012  0.62044   0.8591     C
C      0.56032  0.62044   0.3591     C
H       0.5625   0.2586   0.8832     H
H       0.5632   0.8008   0.3828     H
H       0.5649   0.0966   0.3408     H
H        0.565   0.0266   0.6459     H
H       0.5655   0.5872   0.8463     H
C      0.56723  0.11806  0.13894     C
H       0.5674   0.4176    0.195     H
C      0.56769  0.04118  0.76952     C
H       0.5677   0.6514   0.8404     H
C      0.57014  0.56988  0.26225     C
H       0.5715    0.318   0.1738     H
C      0.57275   0.2935  0.42887     C
H       0.5745    0.274   0.5335     H
C      0.57543  0.44366  0.21697     C
N      0.57724  0.09668  0.76209     N
Cu     0.57725  0.58608  0.45182    Cu
Cu     0.57737  0.08436  0.04481    Cu
N      0.57869  0.62438  0.25417     N
N      0.57938  0.81756   0.2124     N
H       0.5829   0.4068    0.697     H
H       0.5837   0.6514   0.3404     H
N      0.58376  0.45212  0.02328     N
N      0.58405   0.9519  0.51815     N
H       0.5842   0.2526   0.5758     H
N      0.58437  0.97354  0.48193     N
C      0.58455   0.3287   0.6798     C
N       0.5851   0.4756  0.98732     N
H       0.5854   0.9442   0.3149     H
C      0.58612  0.79744  0.06796     C
H       0.5864   0.8928   0.7021     H
H       0.5875   0.7796   0.6756     H
N      0.58824  0.29028  0.70573     N
C      0.58827  0.91814  0.72388     C
H        0.589   0.2966   0.8451     H
C      0.59014  0.85848  0.18525     C
H        0.591   0.7838   0.9616     H
C      0.59106  0.28652  0.55976     C
H       0.5915   0.7398   0.6403     H
H        0.592   0.0934   0.1274     H
H       0.5936   0.9884    0.807     H
H       0.5943   0.4838   0.2081     H
N      0.59466  0.58392  0.06907     N
C      0.59534  0.97388  0.29503     C
N      0.59665   0.1249  0.42824     N
H       0.5997   0.4608   0.5712     H
N      0.60025   0.6289  0.92679     N
N      0.60044  0.08468  0.57145     N
H       0.6009    0.609   0.3703     H
H        0.602   0.2868   0.4072     H
C      0.60223  0.56766  0.73117     C
H       0.6028   0.2716   0.1559     H
C      0.60408  0.09596  0.23921     C
C      0.60474  0.58848  0.10711     C
H       0.6052   0.0116    0.307     H
H       0.6055   0.3024   0.4518     H
H       0.6056    0.771    0.918     H
N      0.60601  0.33822  0.29039     N
C      0.60657  0.80114  0.93621     C
H       0.6067   0.9412   0.1999     H
H       0.6071   0.1526   0.1499     H
H        0.609    0.981   0.9176     H
N       0.6095   0.5244  0.51268     N
H       0.6095   0.9586   0.7154     H
H       0.6099   0.4146   0.8047     H
C      0.61006  0.44792  0.78973     C
N      0.61007  0.62334  0.73526     N
H       0.6104   0.7868   0.0901     H
H       0.6105   0.5162   0.2919     H
N      0.61067  0.15114  0.24347     N
N      0.61083  0.02646  0.98193     N
C      0.61139  0.09418  0.60919     C
C      0.61245   0.3729  0.32082     C
C      0.61247  0.13554  0.39082     C
H       0.6138   0.4384   0.2343     H
C      0.61557  0.84434  0.82754     C
N      0.61638  0.80976  0.79804     N
H       0.6169   0.4806   0.8069     H
C       0.6193   0.6414   0.8899     C
C      0.62146  0.02612  0.79503     C
H       0.6215   0.9124    0.744     H
C      0.62172  0.39264  0.68673     C
H       0.6246   0.8124   0.0475     H
H        0.628    0.019   0.4176     H
H       0.6311   0.4018   0.0767     H
N      0.63164  0.54788  0.47672     N
C      0.63177  0.55634  0.28303     C
N      0.63215   0.0481  0.01815     N
Cu     0.63234   0.8157  0.25703    Cu
H       0.6339    0.902   0.5715     H
H       0.6363   0.5194   0.6931     H
Cu     0.63718  0.16786  0.78254    Cu
H       0.6389   0.5392   0.9288     H
C      0.63957  0.91994  0.19227     C
H       0.6408   0.9758     0.28     H
H       0.6412   0.0558   0.8149     H
H       0.6422   0.4124   0.6626     H
H       0.6459   0.3122   0.5597     H
Cu     0.64667  0.29334     0.75    Cu
H       0.6483   0.7398   0.1403     H
Cu     0.64878   0.6945  0.27229    Cu
H       0.6496    0.938    0.932     H
H       0.6498   0.5824    0.305     H
H       0.6509   0.0414   0.2154     H
H       0.6509     0.93   0.8405     H
H       0.6529   0.4588   0.7712     H
C      0.65421  0.47502  0.56305     C
C      0.65483  0.97866  0.93032     C
C      0.65679  0.46118  0.03364     C
N      0.65702  0.62684  0.05232     N
C      0.65783  0.96146  0.52795     C
C      0.65811  0.99642  0.46978     C
H       0.6594   0.8306   0.9376     H
C      0.65961  0.49822  0.97576     C
H         0.66   0.4564   0.3389     H
Cu     0.66057  0.63938  0.00026    Cu
C      0.66139  0.50178  0.52424     C
C      0.66169  0.00358  0.96978     C
C      0.66214  0.55208  0.71027     C
Cu      0.6639   0.1331  0.50039    Cu
N      0.66406  0.12432  0.55273     N
H       0.6642   0.4004   0.7052     H
N      0.66491  0.14722  0.44837     N
H        0.665   0.0242     0.78     H
H       0.6654    0.771    0.418     H
H       0.6655   0.0588   0.6999     H
N      0.66587  0.65494  0.94828     N
H       0.6663   0.3122   0.9403     H
H       0.6678    0.937   0.1688     H
H       0.6684   0.2526   0.9242     H
H       0.6688   0.2716   0.3441     H
H       0.6697   0.1788   0.8828     H
Cu     0.66991  0.33982     0.25    Cu
C      0.67013  0.08186  0.22388     C
H       0.6712   0.8306   0.4376     H
H       0.6721   0.4426   0.5621     H
C       0.6732   0.4388  0.07077     C
C      0.67429  0.93998  0.56595     C
H       0.6743   0.9674   0.5861     H
C      0.67437  0.63314  0.11533     C
H       0.6754   0.5616   0.2657     H
C      0.67589  0.90318  0.83281     C
H       0.6761   0.5932    0.803     H
C      0.67617  0.02134  0.43032     C
H       0.6764   0.7868   0.5901     H
H       0.6766   0.4668   0.0911     H
H       0.6768   0.9224   0.2127     H
C      0.67723  0.43006  0.32397     C
C      0.67919  0.52498  0.93695     C
Cu     0.68055  0.69484  0.72002    Cu
H       0.6819    0.496   0.9187     H
C      0.68206  0.13952  0.61575     C
Cu     0.68336   0.8157  0.75703    Cu
H       0.6848   0.2868   0.0928     H
Cu     0.68485  0.22062  0.22844    Cu
H       0.6859    0.504   0.5813     H
H       0.6878   0.8124   0.5475     H
N      0.68847  0.23574  0.80882     N
H       0.6896    0.902   0.3528     H
H       0.6921   0.7796   0.1756     H
C      0.69235   0.1645  0.38625     C
H       0.6927    0.446   0.2983     H
H       0.6928   0.7838   0.4616     H
N      0.69338  0.80976  0.29804     N
H       0.6936   0.1072   0.2021     H
H       0.6941   0.5412   0.7288     H
C      0.69457  0.80114  0.43621     C
H       0.6953   0.5854   0.6953     H
C      0.69546  0.28652  0.94024     C
C      0.69561  0.53882  0.46636     C
H       0.6961   0.2586   0.6168     H
C      0.69637  0.03854  0.02795     C
H       0.6969   0.3024   0.0482     H
C      0.69775   0.7561  0.15421     C
C      0.69805   0.6751  0.88698     C
H       0.6995    0.274   0.9665     H
H       0.7009   0.9994   0.4155     H
H       0.7015   0.0006   0.9155     H
N      0.70204  0.29028  0.79427     N
H       0.7036   0.5436   0.1611     H
H       0.7039   0.4254   0.1632     H
H        0.704   0.9164   0.8087     H
C      0.70564  0.65668  0.08002     C
N      0.70606  0.75892  0.30097     N
H       0.7069   0.0326   0.0861     H
C      0.70706  0.49072  0.00437     C
C      0.70721  0.99002  0.49842     C
H       0.7076   0.2966   0.6549     H
C      0.70872  0.65484    0.153     C
H       0.7091   0.0876    0.244     H
H       0.7098   0.5332   0.4089     H
H       0.7105    0.433    0.431     H
H       0.7113   0.9364   0.0651     H
C      0.71132  0.79744  0.56796     C
H       0.7116    0.062    0.432     H
H       0.7124    0.158   0.8494     H
H       0.7124    0.902   0.8528     H
H       0.7124   0.9164   0.3087     H
C      0.71329  0.15718  0.57936     C
C      0.71425   0.1671  0.65248     C
C      0.71612  0.19004  0.86663     C
C      0.71634  0.50928  0.49563     C
C      0.71719  0.00998  0.99842     C
H       0.7184    0.701   0.6302     H
C      0.71955   0.7081  0.16914     C
C      0.71963  0.08006  0.69227     C
H       0.7203   0.7632   0.5588     H
C      0.72075   0.2935  0.07113     C
H       0.7209     0.07   0.3405     H
H       0.7215   0.4254   0.3368     H
C       0.7222    0.242  0.84361     C
H       0.7225    0.433    0.069     H
C      0.72308  0.17136  0.42332     C
C      0.72457  0.68174  0.92453     C
H       0.7251   0.9364   0.5651     H
C      0.72563  0.28566  0.34422     C
C      0.72729  0.90318  0.33281     C
C      0.72877  0.84434  0.32754     C
C      0.72908  0.60736  0.81327     C
H       0.7293   0.5982   0.4233     H
H       0.7295   0.5574   0.9379     H
C      0.72972  0.27404  0.63899     C
H       0.7298   0.5876   0.8374     H
H       0.7308    0.063   0.6688     H
C      0.73166  0.14152  0.68525     C
H       0.7319    0.098   0.0715     H
N      0.73221  0.33822  0.20961     N
H       0.7324   0.2588   0.0666     H
C      0.73431  0.06002  0.06595     C
C       0.7344   0.5612  0.42923     C
C      0.73538  0.22536  0.66192     C
C      0.73572  0.18484  0.35049     C
H       0.7362   0.4004   0.7948     H
N      0.73662  0.76544  0.69782     N
H       0.7376   0.8008   0.8828     H
N      0.73818  0.81756   0.7124     N
H       0.7383   0.7802   0.1369     H
C      0.73955   0.6271  0.17918     C
C      0.74179  0.69938  0.85201     C
C      0.74415   0.3287   0.8202     C
H        0.745   0.2988     0.37     H
N      0.74514  0.28748  0.20339     N
H       0.7456   0.9224   0.7127     H
H       0.7465    0.318   0.3262     H
H       0.7467    0.554   0.2017     H
C      0.74717  0.56994  0.17603     C
C       0.7489    0.762  0.33255     C
C       0.7511    0.238  0.33255     C
C      0.75283  0.43006  0.17603     C
H       0.7533    0.446   0.2017     H
H       0.7535    0.682   0.3262     H
H       0.7544   0.0776   0.7127     H
N      0.75486  0.71252  0.20339     N
H        0.755   0.7012     0.37     H
C      0.75585   0.6713   0.8202     C
C      0.75821  0.30062  0.85201     C
C      0.76045   0.3729  0.17918     C
H       0.7617   0.2198   0.1369     H
N      0.76182  0.18244   0.7124     N
H       0.7624   0.1992   0.8828     H
N      0.76338  0.23456  0.69782     N
H       0.7638   0.5996   0.7948     H
C      0.76428  0.81516  0.35049     C
C      0.76462  0.77464  0.66192     C
C       0.7656   0.4388  0.42923     C
C      0.76569  0.93998  0.06595     C
H       0.7676   0.7412   0.0666     H
N      0.76779  0.66178  0.20961     N
H       0.7681    0.902   0.0715     H
C      0.76834  0.85848  0.68525     C
H       0.7692    0.937   0.6688     H
H       0.7702   0.4124   0.8374     H
C      0.77028  0.72596  0.63899     C
H       0.7705   0.4426   0.9379     H
H       0.7707   0.4018   0.4233     H
C      0.77092  0.39264  0.81327     C
C      0.77123  0.15566  0.32754     C
C      0.77271  0.09682  0.33281     C
C      0.77437  0.71434  0.34422     C
H       0.7749   0.0636   0.5651     H
C      0.77543  0.31826  0.92453     C
C      0.77692  0.82864  0.42332     C
H       0.7775    0.567    0.069     H
C       0.7778    0.758  0.84361     C
H       0.7785   0.5746   0.3368     H
H       0.7791     0.93   0.3405     H
C      0.77925   0.7065  0.07113     C
H       0.7797   0.2368   0.5588     H
C      0.78037  0.91994  0.69227     C
C      0.78045   0.2919  0.16914     C
H       0.7816    0.299   0.6302     H
C      0.78281  0.99002  0.99842     C
C      0.78366  0.49072  0.49563     C
C      0.78388  0.80996  0.86663     C
C      0.78575   0.8329  0.65248     C
C      0.78671  0.84282  0.57936     C
H       0.7876   0.0836   0.3087     H
H       0.7876    0.098   0.8528     H
H       0.7876    0.842   0.8494     H
H       0.7884    0.938    0.432     H
C      0.78868  0.20256  0.56796     C
H       0.7887   0.0636   0.0651     H
H       0.7895    0.567    0.431     H
H       0.7902   0.4668   0.4089     H
H       0.7909   0.9124    0.244     H
C      0.79128  0.34516    0.153     C
H       0.7924   0.7034   0.6549     H
C      0.79279  0.00998  0.49842     C
C      0.79294  0.50928  0.00437     C
H       0.7931   0.9674   0.0861     H
N      0.79394  0.24108  0.30097     N
C      0.79436  0.34332  0.08002     C
H        0.796   0.0836   0.8087     H
H       0.7961   0.5746   0.1632     H
H       0.7964   0.4564   0.1611     H
N      0.79796  0.70972  0.79427     N
H       0.7985   0.9994   0.9155     H
H       0.7991   0.0006   0.4155     H
H       0.8005    0.726   0.9665     H
C      0.80195   0.3249  0.88698     C
C      0.80225   0.2439  0.15421     C
H       0.8031   0.6976   0.0482     H
C      0.80363  0.96146  0.02795     C
H       0.8039   0.7414   0.6168     H
C      0.80439  0.46118  0.46636     C
C      0.80454  0.71348  0.94024     C
H       0.8047   0.4146   0.6953     H
C      0.80543  0.19886  0.43621     C
H       0.8059   0.4588   0.7288     H
H       0.8064   0.8928   0.2021     H
N      0.80662  0.19024  0.29804     N
H       0.8072   0.2162   0.4616     H
H       0.8073    0.554   0.2983     H
C      0.80765   0.8355  0.38625     C
H       0.8079   0.2204   0.1756     H
H       0.8104    0.098   0.3528     H
N      0.81153  0.76426  0.80882     N
H       0.8122   0.1876   0.5475     H
H       0.8141    0.496   0.5813     H
Cu     0.81515  0.77938  0.22844    Cu
H       0.8152   0.7132   0.0928     H
Cu     0.81664   0.1843  0.75703    Cu
C      0.81794  0.86048  0.61575     C
H       0.8181    0.504   0.9187     H
Cu     0.81945  0.30516  0.72002    Cu
C      0.82081  0.47502  0.93695     C
C      0.82277  0.56994  0.32397     C
H       0.8232   0.0776   0.2127     H
H       0.8234   0.5332   0.0911     H
H       0.8236   0.2132   0.5901     H
C      0.82383  0.97866  0.43032     C
H       0.8239   0.4068    0.803     H
C      0.82411  0.09682  0.83281     C
H       0.8246   0.4384   0.2657     H
C      0.82563  0.36686  0.11533     C
H       0.8257   0.0326   0.5861     H
C      0.82571  0.06002  0.56595     C
C       0.8268   0.5612  0.07077     C
H       0.8279   0.5574   0.5621     H
H       0.8288   0.1694   0.4376     H
C      0.82987  0.91814  0.22388     C
Cu     0.83009  0.66018     0.25    Cu
H       0.8303   0.8212   0.8828     H
H       0.8312   0.7284   0.3441     H
H       0.8316   0.7474   0.9242     H
H       0.8322    0.063   0.1688     H
H       0.8337   0.6878   0.9403     H
N      0.83413  0.34506  0.94828     N
H       0.8345   0.9412   0.6999     H
H       0.8346    0.229    0.418     H
H        0.835   0.9758     0.78     H
N      0.83509  0.85278  0.44837     N
H       0.8358   0.5996   0.7052     H
N      0.83594  0.87568  0.55273     N
Cu      0.8361   0.8669  0.50039    Cu
C      0.83786  0.44792  0.71027     C
C      0.83831  0.99642  0.96978     C
C      0.83861  0.49822  0.52424     C
Cu     0.83943  0.36062  0.00026    Cu
H         0.84   0.5436   0.3389     H
C      0.84039  0.50178  0.97576     C
H       0.8406   0.1694   0.9376     H
C      0.84189  0.00358  0.46978     C
C      0.84217  0.03854  0.52795     C
N      0.84298  0.37316  0.05232     N
C      0.84321  0.53882  0.03364     C
C      0.84517  0.02134  0.93032     C
C      0.84579  0.52498  0.56305     C
H       0.8471   0.5412   0.7712     H
H       0.8491     0.07   0.8405     H
H       0.8491   0.9586   0.2154     H
H       0.8502   0.4176    0.305     H
H       0.8504    0.062    0.932     H
Cu     0.85122   0.3055  0.27229    Cu
H       0.8517   0.2602   0.1403     H
Cu     0.85333  0.70666     0.75    Cu
H       0.8541   0.6878   0.5597     H
H       0.8578   0.5876   0.6626     H
H       0.8588   0.9442   0.8149     H
H       0.8592   0.0242     0.28     H
C      0.86043  0.08006  0.19227     C
H       0.8611   0.4608   0.9288     H
Cu     0.86282  0.83214  0.78254    Cu
H       0.8637   0.4806   0.6931     H
H       0.8661    0.098   0.5715     H
Cu     0.86766   0.1843  0.25703    Cu
N      0.86785   0.9519  0.01815     N
C      0.86823  0.44366  0.28303     C
N      0.86836  0.45212  0.47672     N
H       0.8689   0.5982   0.0767     H
H        0.872    0.981   0.4176     H
H       0.8754   0.1876   0.0475     H
C      0.87828  0.60736  0.68673     C
H       0.8785   0.0876    0.744     H
C      0.87854  0.97388  0.79503     C
C       0.8807   0.3586   0.8899     C
H       0.8831   0.5194   0.8069     H
N      0.88362  0.19024  0.79804     N
C      0.88443  0.15566  0.82754     C
H       0.8862   0.5616   0.2343     H
C      0.88753  0.86446  0.39082     C
C      0.88755   0.6271  0.32082     C
C      0.88861  0.90582  0.60919     C
N      0.88917  0.97354  0.98193     N
N      0.88933  0.84886  0.24347     N
H       0.8895   0.4838   0.2919     H
H       0.8896   0.2132   0.0901     H
N      0.88993  0.37666  0.73526     N
C      0.88994  0.55208  0.78973     C
H       0.8901   0.5854   0.8047     H
H       0.8905   0.0414   0.7154     H
N       0.8905   0.4756  0.51268     N
H        0.891    0.019   0.9176     H
H       0.8929   0.8474   0.1499     H
H       0.8933   0.0588   0.1999     H
C      0.89343  0.19886  0.93621     C
N      0.89399  0.66178  0.29039     N
H       0.8944    0.229    0.918     H
H       0.8945   0.6976   0.4518     H
H       0.8948   0.9884    0.307     H
C      0.89526  0.41152  0.10711     C
C      0.89592  0.90404  0.23921     C
H       0.8972   0.7284   0.1559     H
C      0.89777  0.43234  0.73117     C
H        0.898   0.7132   0.4072     H
H       0.8991    0.391   0.3703     H
N      0.89956  0.91532  0.57145     N
N      0.89975   0.3711  0.92679     N
H       0.9003   0.5392   0.5712     H
N      0.90335   0.8751  0.42824     N
C      0.90466  0.02612  0.29503     C
N      0.90534  0.41608  0.06907     N
H       0.9057   0.5162   0.2081     H
H       0.9064   0.0116    0.807     H
H        0.908   0.9066   0.1274     H
H       0.9085   0.2602   0.6403     H
C      0.90894  0.71348  0.55976     C
H        0.909   0.2162   0.9616     H
C      0.90986  0.14152  0.18525     C
H        0.911   0.7034   0.8451     H
C      0.91173  0.08186  0.72388     C
N      0.91176  0.70972  0.70573     N
H       0.9125   0.2204   0.6756     H
H       0.9136   0.1072   0.7021     H
C      0.91388  0.20256  0.06796     C
H       0.9146   0.0558   0.3149     H
N       0.9149   0.5244  0.98732     N
C      0.91545   0.6713   0.6798     C
N      0.91563  0.02646  0.48193     N
H       0.9158   0.7474   0.5758     H
N      0.91595   0.0481  0.51815     N
N      0.91624  0.54788  0.02328     N
H       0.9163   0.3486   0.3404     H
H       0.9171   0.5932    0.697     H
N      0.92062  0.18244   0.2124     N
N      0.92131  0.37562  0.25417     N
Cu     0.92263  0.91564  0.04481    Cu
Cu     0.92275  0.41392  0.45182    Cu
N      0.92276  0.90332  0.76209     N
C      0.92457  0.55634  0.21697     C
H       0.9255    0.726   0.5335     H
C      0.92725   0.7065  0.42887     C
H       0.9285    0.682   0.1738     H
C      0.92986  0.43012  0.26225     C
H       0.9323   0.3486   0.8404     H
C      0.93231  0.95882  0.76952     C
H       0.9326   0.5824    0.195     H
C      0.93277  0.88194  0.13894     C
H       0.9345   0.4128   0.8463     H
H        0.935   0.9734   0.6459     H
H       0.9351   0.9034   0.3408     H
H       0.9368   0.1992   0.3828     H
H       0.9375   0.7414   0.8832     H
C      0.93968  0.37956   0.3591     C
C      0.93988  0.37956   0.8591     C
C      0.93997  0.71434  0.15578     C
C      0.94165   0.2439  0.65421     C
C      0.94389  0.15718  0.07936     C
H       0.9451   0.4876   0.1358     H
H       0.9456    0.158   0.3494     H
C      0.94612  0.65484    0.347     C
H       0.9462   0.7012     0.13     H
N      0.94714  0.24108  0.80097     N
C       0.9481   0.9408  0.63707     C
H       0.9482   0.4332   0.1591     H
C      0.94828  0.17136  0.92332     C
C      0.94912  0.18484  0.85049     C
C      0.94917  0.88194  0.36106     C
H       0.9494   0.9166    0.659     H
C      0.95104  0.65668  0.41998     C
N      0.95273  0.76426  0.69118     N
C      0.95285   0.1671  0.15248     C
H        0.953    0.459   0.6239     H
C      0.95362  0.45124  0.13375     C
Cu     0.95428   0.3055  0.77229    Cu
N      0.95431  0.37562  0.75417     N
H       0.9545   0.8474   0.3501     H
C      0.95568  0.72596  0.86101     C
H       0.9562   0.9554   0.8753     H
H       0.9571   0.2368   0.0588     H
C      0.95717  0.68174  0.57547     C
C      0.95746  0.13952  0.11575     C
H       0.9575   0.5124   0.3642     H
C      0.95759  0.69938  0.64799     C
N      0.95766  0.71252  0.29661     N
H       0.9581   0.2198   0.6369     H
C      0.95877  0.63314  0.38467     C
N      0.95953  0.84886  0.25653     N
N      0.96026  0.12432  0.05273     N
Cu     0.96042  0.45364  0.53981    Cu
H       0.9616   0.0266   0.1459     H
Cu      0.9622  0.95246  0.95616    Cu
Cu     0.96423  0.77938  0.27156    Cu
C      0.96543  0.56766  0.76883     C
C      0.96665   0.4683  0.74857     C
H       0.9672   0.9166    0.841     H
H       0.9683   0.9034   0.1592     H
Cu      0.9692   0.1331  0.00039    Cu
Cu     0.96932  0.83214  0.71746    Cu
N      0.96982  0.62684  0.44768     N
C      0.97032  0.94064     0.25     C
N      0.97118  0.23456  0.19782     N
N      0.97135   0.3711  0.42679     N
N      0.97175   0.8751  0.07176     N
C      0.97215   0.1645  0.88625     C
C      0.97349  0.04118  0.26952     C
H       0.9736   0.7412   0.4334     H
C      0.97392  0.19004  0.36663     C
C      0.97693  0.86446  0.10918     C
C      0.97705   0.6751  0.61302     C
C       0.9779   0.3586   0.3899     C
H       0.9783   0.4128   0.3463     H
Cu     0.97881  0.63938  0.49974    Cu
C       0.9802    0.758  0.65639     C
N      0.98056  0.90332  0.73791     N
N      0.98231  0.14722  0.94837     N
H       0.9826    0.701   0.8698     H
C      0.98279  0.09418  0.10919     C
C      0.98374  0.58848  0.39289     C
N      0.98424  0.08468  0.07145     N
H        0.985   0.4332   0.6591     H
Cu     0.98571  0.30516  0.22002    Cu
N      0.98673  0.37666  0.23526     N
C       0.9869    0.238  0.83255     C
C      0.98855   0.7081  0.33086     C
N      0.98907  0.65494  0.55172     N
N      0.98926  0.58392  0.43093     N
C      0.98998  0.22536  0.16192     C
Cu     0.99026  0.95246  0.54384    Cu
H       0.9909   0.8212   0.6172     H
Cu     0.99117  0.41392  0.95182    Cu
C      0.99188  0.09596  0.73921     C
H       0.9919    0.391   0.8703     H
C       0.9927   0.9408  0.86293     C
Cu     0.99301  0.91564  0.45519    Cu
Cu     0.99322  0.45364  0.03981    Cu
H        0.994    0.541   0.8761     H
C      0.99762  0.45124  0.63375     C
C      0.99786  0.99572     0.75     C
C      0.99835   0.5317  0.75143     C
H       0.9986   0.9066   0.3726     H
H       0.9992   0.9554   0.6247     H
C      0.99974  0.56988  0.23775     C
