data_I
_chemical_name_common  '/home/zhangsd/repos/MofS-CGCNN/ML/data/WS24/clean_cifs/LIQFEY'
_cell_length_a  9.89900
_cell_length_b 10.36200
_cell_length_c 13.18000
_cell_angle_alpha 68.87000
_cell_angle_beta  70.65000
_cell_angle_gamma 80.77000
_space_group_name_H-M_alt      'P 1'


loop_
_space_group_symop_operation_xyz
  'x, y, z' 

loop_
_atom_site_label
_atom_site_fract_x
_atom_site_fract_y
_atom_site_fract_z
_atom_site_type_symbol
Cd         0.0      0.0      0.0    Cd
O       0.0081   0.4714   0.2251     O
Cd     0.01405  0.30815  0.76365    Cd
H       0.0198   0.7655     0.77     H
O       0.0449   0.9638   0.8318     O
C       0.0507   0.5786   0.6698     C
C       0.0627   0.8055   0.6922     C
C       0.0756   0.0271   0.7264     C
O       0.0778    0.507   0.6058     O
C       0.0872   0.7281     0.62     C
O       0.0876   0.1537   0.6774     O
C       0.1021    0.942   0.6484     C
O       0.1164   0.2049   0.9058     O
C       0.1509   0.7871   0.5034     C
C       0.1638   0.9997   0.5326     C
H       0.1668   0.7355   0.4552     H
O       0.1871    0.849   0.0349     O
H       0.1881   0.0919   0.5028     H
H       0.1882   0.1379   0.0814     H
C       0.1907   0.9244   0.4594     C
O       0.2205   0.7152   0.1995     O
C       0.2439   0.2473   0.8585     C
C       0.2587   0.9867   0.3393     C
C       0.2661   0.7919   0.0981     C
O        0.285   0.3196   0.7581     O
C       0.2865   0.1483   0.0492     C
C       0.3159   0.0409   0.2395     C
C       0.3428   0.2066   0.9324     C
C        0.376    0.105   0.1188     C
H       0.4177   0.9064    0.885     H
C       0.4222   0.8133   0.0479     C
H       0.4763   0.7279   0.1944     H
C       0.4786   0.8765   0.9305     C
C       0.4871    0.229   0.8838     C
C       0.5129    0.771   0.1162     C
C       0.5214   0.1235   0.0695     C
H       0.5237   0.2721   0.8056     H
C       0.5778   0.1867   0.9521     C
H       0.5823   0.0936    0.115     H
C        0.624    0.895   0.8812     C
C       0.6572   0.7934   0.0676     C
C       0.6841   0.9591   0.7605     C
C       0.7135   0.8517   0.9508     C
O        0.715   0.6804   0.2419     O
C       0.7339   0.2081   0.9019     C
C       0.7413   0.0133   0.6607     C
C       0.7561   0.7527   0.1415     C
O       0.7795   0.2848   0.8005     O
C       0.8093   0.0756   0.5406     C
H       0.8118   0.8621   0.9186     H
H       0.8119   0.9081   0.4972     H
O       0.8129    0.151   0.9651     O
H       0.8332   0.2645   0.5448     H
C       0.8362   0.0003   0.4674     C
C       0.8491   0.2129   0.4966     C
O       0.8836   0.7951   0.0942     O
C       0.8979    0.058   0.3516     C
O       0.9124   0.8463   0.3226     O
C       0.9128   0.2719     0.38     C
O       0.9222    0.493   0.3942     O
C       0.9244   0.9729   0.2736     C
C       0.9373   0.1945   0.3078     C
C       0.9493   0.4214   0.3302     C
O       0.9551   0.0362   0.1682     O
H       0.9802   0.2345     0.23     H
Cd     0.98595  0.69185  0.23635    Cd
O       0.9919   0.5286   0.7749     O
