data_I
_chemical_name_common  '/home/zhangsd/repos/MofS-CGCNN/ML/data/WS24/clean_cifs/LOQLIN'
_cell_length_a 21.18690
_cell_length_b 21.18690
_cell_length_c  6.74230
_cell_angle_alpha 90.00000
_cell_angle_beta  90.00000
_cell_angle_gamma 59.96600
_space_group_name_H-M_alt      'P 1'


loop_
_space_group_symop_operation_xyz
  'x, y, z' 

loop_
_atom_site_label
_atom_site_fract_x
_atom_site_fract_y
_atom_site_fract_z
_atom_site_type_symbol
Ga        -0.0      0.0      0.0    Ga
Ga        -0.0      0.0      0.5    Ga
Ga        -0.0      0.5      0.0    Ga
Ga        -0.0      0.5      0.5    Ga
O      0.01878  0.90496  0.08944     O
O      0.01878  0.90496  0.41056     O
C      0.02013  0.87481     0.25     C
C      0.02335  0.80245     0.25     C
H       0.0238  0.79232   0.5557     H
H       0.0238  0.79232   0.9443     H
C      0.02486  0.76868  0.07018     C
C      0.02486  0.76868  0.42982     C
O      0.02563  0.02563     0.25     O
C      0.02787  0.70115  0.07018     C
C      0.02787  0.70115  0.42982     C
H      0.02892  0.67752   0.5557     H
H      0.02892  0.67752   0.9443     H
C      0.02937  0.66739     0.25     C
C       0.0326  0.59502     0.25     C
O      0.03394  0.56488  0.08944     O
O      0.03394  0.56488  0.41056     O
O        0.046      0.5     0.75     O
H       0.0932      0.5     0.75     H
O      0.09504  0.98122  0.58944     O
O      0.09504  0.98122  0.91056     O
O      0.09881  0.43173  0.08944     O
O      0.09881  0.43173  0.41056     O
C      0.12519  0.97987     0.75     C
C      0.12832  0.40222     0.25     C
C      0.19755  0.97665     0.75     C
C      0.19916  0.33138     0.25     C
H      0.20768   0.9762   0.0557     H
H      0.20768   0.9762   0.4443     H
H      0.20907  0.32147   0.5557     H
H      0.20907  0.32147   0.9443     H
C      0.23132  0.97514  0.57018     C
C      0.23132  0.97514  0.92982     C
C      0.23221  0.29833  0.07018     C
C      0.23221  0.29833  0.42982     C
C      0.29833  0.23221  0.07018     C
C      0.29833  0.23221  0.42982     C
C      0.29885  0.97213  0.57018     C
C      0.29885  0.97213  0.92982     C
H      0.32147  0.20907   0.5557     H
H      0.32147  0.20907   0.9443     H
H      0.32248  0.97108   0.0557     H
H      0.32248  0.97108   0.4443     H
C      0.33138  0.19916     0.25     C
C      0.33261  0.97063     0.75     C
C      0.40222  0.12832     0.25     C
C      0.40498   0.9674     0.75     C
O      0.43173  0.09881  0.08944     O
O      0.43173  0.09881  0.41056     O
O      0.43512  0.96606  0.58944     O
O      0.43512  0.96606  0.91056     O
Ga         0.5      0.0      0.0    Ga
Ga         0.5      0.0      0.5    Ga
O          0.5    0.046     0.75     O
H          0.5   0.0932     0.75     H
H          0.5   0.9068     0.25     H
O          0.5    0.954     0.25     O
O      0.56488  0.03394  0.08944     O
O      0.56488  0.03394  0.41056     O
O      0.56827  0.90119  0.58944     O
O      0.56827  0.90119  0.91056     O
C      0.59502   0.0326     0.25     C
C      0.59778  0.87168     0.75     C
C      0.66739  0.02937     0.25     C
C      0.66862  0.80084     0.75     C
H      0.67752  0.02892   0.5557     H
H      0.67752  0.02892   0.9443     H
H      0.67853  0.79093   0.0557     H
H      0.67853  0.79093   0.4443     H
C      0.70115  0.02787  0.07018     C
C      0.70115  0.02787  0.42982     C
C      0.70167  0.76779  0.57018     C
C      0.70167  0.76779  0.92982     C
C      0.76779  0.70167  0.57018     C
C      0.76779  0.70167  0.92982     C
C      0.76868  0.02486  0.07018     C
C      0.76868  0.02486  0.42982     C
H      0.79093  0.67853   0.0557     H
H      0.79093  0.67853   0.4443     H
H      0.79232   0.0238   0.5557     H
H      0.79232   0.0238   0.9443     H
C      0.80084  0.66862     0.75     C
C      0.80245  0.02335     0.25     C
C      0.87168  0.59778     0.75     C
C      0.87481  0.02013     0.25     C
O      0.90119  0.56827  0.58944     O
O      0.90119  0.56827  0.91056     O
O      0.90496  0.01878  0.08944     O
O      0.90496  0.01878  0.41056     O
H       0.9068      0.5     0.25     H
O        0.954      0.5     0.25     O
O      0.96606  0.43512  0.58944     O
O      0.96606  0.43512  0.91056     O
C       0.9674  0.40498     0.75     C
C      0.97063  0.33261     0.75     C
H      0.97108  0.32248   0.0557     H
H      0.97108  0.32248   0.4443     H
C      0.97213  0.29885  0.57018     C
C      0.97213  0.29885  0.92982     C
O      0.97437  0.97437     0.75     O
C      0.97514  0.23132  0.57018     C
C      0.97514  0.23132  0.92982     C
H       0.9762  0.20768   0.0557     H
H       0.9762  0.20768   0.4443     H
C      0.97665  0.19755     0.75     C
C      0.97987  0.12519     0.75     C
O      0.98122  0.09504  0.58944     O
O      0.98122  0.09504  0.91056     O
