data_I
_chemical_name_common  '/home/zhangsd/repos/MofS-CGCNN/ML/data/WS24/clean_cifs/LOQSUG'
_cell_length_a 24.12050
_cell_length_b 24.12050
_cell_length_c 24.12050
_cell_angle_alpha 109.46100
_cell_angle_beta  109.46100
_cell_angle_gamma 109.46100
_space_group_name_H-M_alt      'P 1'


loop_
_space_group_symop_operation_xyz
  'x, y, z' 

loop_
_atom_site_label
_atom_site_fract_x
_atom_site_fract_y
_atom_site_fract_z
_atom_site_type_symbol
H       0.0001   0.7836   0.6729     H
C       0.0015   0.3677   0.2184     C
C       0.0015   0.4853   0.1378     C
H       0.0037   0.8115   0.1892     H
H        0.004   0.1174   0.0234     H
C        0.005   0.2283   0.3732     C
C        0.007    0.168    0.674     C
C       0.0075   0.5902     0.17     C
C       0.0076   0.9167   0.8803     C
N       0.0086   0.3731   0.9663     N
C       0.0087   0.4458   0.5507     C
O       0.0117   0.9804   0.7468     O
C       0.0122   0.1982   0.0136     C
C       0.0136   0.0122   0.1982     C
H       0.0137   0.8305   0.1356     H
H       0.0145   0.6465   0.3554     H
H       0.0149   0.0616   0.5616     H
C        0.016   0.6963    0.936     C
C        0.016   0.7128   0.6873     C
H       0.0168   0.4569    0.147     H
C       0.0179   0.6806   0.8784     C
H       0.0192   0.1487   0.3477     H
C       0.0192   0.5457   0.1848     C
C       0.0193   0.8033   0.1566     C
O       0.0197   0.4094   0.9396     O
O       0.0199   0.0544   0.3862     O
H         0.02   0.9773   0.6681     H
O       0.0225   0.4847   0.8198     O
H       0.0234    0.004   0.1174     H
H       0.0234   0.6336    0.204     H
C       0.0241   0.2909   0.3788     C
C       0.0243   0.6822   0.3465     C
H       0.0255   0.3396   0.1457     H
H       0.0262   0.9825   0.8529     H
H       0.0273    0.349   0.4768     H
C       0.0297   0.0958   0.6044     C
C       0.0335   0.7734   0.6911     C
H       0.0345   0.7087   0.1673     H
H       0.0353   0.8932   0.7216     H
H       0.0358   0.6538   0.8639     H
H       0.0364   0.8776   0.6533     H
C       0.0371   0.1939   0.3584     C
H       0.0372   0.6846   0.9664     H
H       0.0394   0.4111   0.2469     H
H       0.0407   0.5574   0.2302     H
H       0.0451   0.9349   0.4241     H
H       0.0452   0.0582   0.2271     H
C       0.0457   0.5192   0.6848     C
H       0.0469   0.7353   0.0728     H
C         0.05   0.9982   0.7165     C
C       0.0507   0.9458   0.5087     C
H       0.0537   0.6612   0.7189     H
O       0.0544   0.3862   0.0199     O
H       0.0574   0.5407   0.7302     H
C       0.0576   0.7933    0.332     C
H       0.0582   0.2271   0.0452     H
H       0.0616   0.5616   0.0149     H
H       0.0616   0.5616   0.5149     H
C       0.0637   0.7001   0.7153     C
C       0.0642   0.9028   0.7023     C
C        0.071   0.4721   0.6043     C
H        0.072   0.8349   0.3333     H
H       0.0728   0.0469   0.7353     H
C       0.0732   0.2026    0.722     C
H       0.0741   0.9263   0.2365     H
H       0.0764   0.5913   0.9374     H
C       0.0766   0.9597   0.4704     C
C       0.0776   0.3187   0.3698     C
H       0.0781   0.8618   0.8476     H
O       0.0836   0.9553   0.6139     O
C       0.0838   0.7118   0.3471     C
H       0.0866   0.3567   0.3645     H
C       0.0881   0.9448    0.916     C
H       0.0885   0.2403   0.7626     H
O       0.0892   0.8228   0.1908     O
C       0.0902   0.5075     0.67     C
H       0.0913   0.5764   0.4374     H
C       0.0956   0.2265   0.3594     C
C       0.0958   0.6044   0.0297     C
C       0.0964   0.1324   0.6508     C
C       0.0991   0.8193   0.7212     C
C       0.0992   0.7666   0.3384     C
C       0.1016    0.976   0.7273     C
C       0.1043   0.9721    0.571     C
C       0.1044   0.5958   0.5297     C
C       0.1079   0.6184   0.9835     C
C       0.1095   0.9042    0.886     C
H       0.1133   0.6946   0.3534     H
O       0.1139   0.4553   0.5836     O
C       0.1148   0.9327   0.2665     C
H       0.1174   0.0234    0.004     H
C       0.1174   0.2901   0.3685     C
C       0.1184   0.6079   0.4835     C
C       0.1187   0.1837   0.7125     C
O       0.1199   0.8836   0.7258     O
H       0.1208   0.2053   0.3539     H
H       0.1223   0.6405    0.127     H
H        0.127   0.1223   0.6405     H
C       0.1279   0.7465   0.7385     C
C       0.1303   0.8831   0.2496     C
C       0.1324   0.6508   0.0964     C
C       0.1324    0.998   0.9811     C
H       0.1336   0.5234    0.704     H
H       0.1356   0.0137   0.8305     H
C       0.1374   0.9865   0.6894     C
C       0.1378   0.0015   0.4853     C
H       0.1386    0.786   0.3366     H
H       0.1405   0.6223    0.627     H
H       0.1457   0.0255   0.3396     H
H       0.1465   0.5145   0.8554     H
H        0.147   0.0168   0.4569     H
O       0.1485   0.3215   0.1944     O
H       0.1487   0.3477   0.0192     H
C       0.1507   0.8087   0.7474     C
C       0.1508   0.6324   0.5964     C
H       0.1533   0.3776   0.5364     H
H       0.1538   0.5358   0.3639     H
C       0.1566   0.0193   0.8033     C
C       0.1577   0.9923   0.3269     C
H       0.1598   0.3142    0.374     H
H       0.1601   0.7331   0.7497     H
H       0.1612   0.5537   0.2189     H
H       0.1648   0.9646    0.692     H
H        0.165   0.1798   0.4705     H
H       0.1673   0.0345   0.7087     H
C        0.168    0.674    0.007     C
H       0.1681   0.4773     0.52     H
H       0.1685    0.808   0.1761     H
C         0.17   0.0075   0.5902     C
H       0.1729   0.2836   0.5001     H
C        0.174    0.668    0.507     C
H       0.1761   0.1685    0.808     H
C       0.1764   0.9264   0.9127     C
H       0.1787   0.6846   0.4782     H
H       0.1798   0.4705    0.165     H
C       0.1806   0.5179   0.3784     C
H       0.1822   0.4386   0.8299     H
C       0.1822   0.5243   0.8465     C
C       0.1837   0.7125   0.1187     C
H       0.1846   0.5372   0.4664     H
H       0.1846   0.6787   0.9782     H
C       0.1848   0.0192   0.5457     C
O        0.185   0.2677   0.2411     O
C       0.1873   0.2128    0.516     C
O       0.1874   0.7223   0.8932     O
H       0.1892   0.0037   0.8115     H
C       0.1894   0.4865   0.6374     C
O       0.1908   0.0892   0.8228     O
C       0.1911   0.2734   0.5335     C
H        0.192   0.4646   0.6648     H
H       0.1921   0.9033   0.8883     H
C       0.1939   0.2243   0.7599     C
C       0.1939   0.3584   0.0371     C
C       0.1939   0.8944   0.2878     C
O       0.1944   0.1485   0.3215     O
H       0.1946   0.6133   0.8534     H
N       0.1949   0.3105   0.2214     N
C       0.1963    0.516    0.436     C
H       0.1976   0.4945    0.305     H
C       0.1982   0.0136   0.0122     C
N        0.199    0.808   0.2074     N
C       0.2001   0.5637   0.2153     C
C       0.2023   0.4028   0.5642     C
C       0.2026    0.722   0.0732     C
H        0.204   0.0234   0.6336     H
C       0.2047   0.4803   0.8332     C
H       0.2053   0.3539   0.1208     H
C       0.2063   0.4927   0.3446     C
N       0.2074    0.199    0.808     N
H       0.2087   0.2722   0.7839     H
H       0.2087   0.5345   0.6673     H
H        0.209     0.38   0.9692     H
C       0.2118   0.5838   0.8471     C
H       0.2122     0.39   0.7153     H
C       0.2125   0.6837   0.6187     C
C       0.2128    0.516   0.1873     C
C       0.2153   0.2001   0.5637     C
H       0.2153     0.89   0.7122     H
C       0.2165   0.4982     0.55     C
H       0.2177   0.2179    0.735     H
H       0.2179    0.735   0.2177     H
C       0.2184   0.0015   0.3677     C
H       0.2189   0.1612   0.5537     H
C       0.2208   0.9816   0.9745     C
C       0.2212   0.3193   0.5991     C
N       0.2214   0.1949   0.3105     N
H       0.2216   0.3932   0.5353     H
C        0.222   0.7026   0.5732     C
O       0.2223   0.6874   0.3932     O
C       0.2243   0.7599   0.1939     C
O       0.2258   0.3836   0.6199     O
C       0.2265   0.3594   0.0956     C
H       0.2271   0.0452   0.0582     H
C       0.2273    0.476   0.6016     C
C       0.2283   0.3732    0.005     C
C       0.2287   0.8517   0.2738     C
C       0.2293   0.4828   0.4488     C
H       0.2302   0.0407   0.5574     H
C       0.2328   0.8568    0.778     C
H       0.2331   0.6601   0.2497     H
H        0.235   0.7179   0.7177     H
H       0.2353   0.5469   0.5728     H
N       0.2363   0.7624   0.8927     N
H       0.2365   0.0741   0.9263     H
C       0.2375   0.9559   0.3456     C
C       0.2385   0.2465   0.6279     C
H       0.2403   0.7626   0.0885     H
O       0.2409   0.7554   0.3525     O
O       0.2411    0.185   0.2677     O
O       0.2425   0.2552   0.3527     O
C        0.243   0.4648   0.3598     C
N       0.2446   0.8954   0.7486     N
C       0.2465   0.6279   0.2385     C
O       0.2468   0.4804   0.5117     O
H       0.2469   0.0394   0.4111     H
C       0.2474   0.3087   0.6507     C
N       0.2486   0.3954   0.7446     N
C       0.2496   0.1303   0.8831     C
H       0.2497   0.2331   0.6601     H
O       0.2552   0.3527   0.2425     O
O       0.2554   0.7409   0.8525     O
C       0.2585   0.4584   0.4152     C
H       0.2589   0.4491   0.3311     H
C       0.2599   0.7243   0.6939     C
C       0.2601   0.4953    0.824     C
N       0.2624   0.7363   0.3927     N
H       0.2626   0.7403   0.5885     H
C       0.2665   0.1148   0.9327     C
C       0.2666   0.5992   0.8384     C
H       0.2672   0.9982   0.9916     H
O       0.2677   0.2411    0.185     O
O       0.2702   0.8248   0.9377     O
H       0.2722   0.7839   0.2087     H
O       0.2727   0.8482   0.8142     O
C       0.2734   0.5335   0.1911     C
C       0.2738   0.2287   0.8517     C
O       0.2778   0.8563   0.3188     O
C        0.278   0.3568   0.7328     C
H       0.2821   0.9668   0.3708     H
H       0.2836   0.5001   0.1729     H
H       0.2839   0.7722   0.7087     H
H        0.286   0.6386   0.8366     H
H       0.2876   0.4278   0.8451     H
C       0.2878   0.1939   0.8944     C
C       0.2901   0.3685   0.1174     C
C       0.2903   0.4477   0.8165     C
C       0.2909   0.3788   0.0241     C
H       0.2917   0.3616    0.934     H
C       0.2933   0.5576    0.832     C
O       0.2957   0.8813   0.4619     O
Er     0.30283  0.30283  0.30283    Er
C       0.3033   0.5193   0.6566     C
H        0.305   0.1976   0.4945     H
O       0.3072   0.3903   0.3851     O
H        0.308   0.6685   0.6761     H
N        0.308    0.699   0.7074     N
C       0.3087   0.6507   0.2474     C
N       0.3105   0.2214   0.1949     N
C       0.3112   0.4345   0.4365     C
H       0.3115   0.5037   0.6892     H
O       0.3142   0.3482   0.7727     O
H       0.3142    0.374   0.1598     H
C       0.3165   0.9477   0.7903     C
C       0.3187   0.3698   0.0776     C
O       0.3188   0.2778   0.8563     O
C       0.3193   0.5991   0.2212     C
O       0.3198   0.9847   0.5225     O
O       0.3215   0.1944   0.1485     O
O       0.3228   0.5892   0.6908     O
C        0.324   0.9953   0.7601     C
O       0.3248   0.7702   0.4377     O
C       0.3255   0.3882   0.9819     C
C       0.3269   0.1577   0.9923     C
N       0.3278   0.9439   0.4827     N
H       0.3288   0.9722   0.8375     H
H       0.3299   0.9386   0.6822     H
H       0.3305   0.5137   0.6356     H
H       0.3311   0.2589   0.4491     H
C        0.332   0.0576   0.7933     C
C       0.3332   0.9803   0.7047     C
H       0.3333    0.072   0.8349     H
H       0.3349    0.572   0.8333     H
H       0.3366   0.1386    0.786     H
O       0.3373   0.9502   0.9474     O
H       0.3375   0.4722   0.8288     H
C       0.3384   0.0992   0.7666     C
H       0.3396   0.1457   0.0255     H
C       0.3446   0.2063   0.4927     C
H       0.3451   0.9278   0.7876     H
C       0.3456   0.2375   0.9559     C
C       0.3465   0.0243   0.6822     C
C       0.3471   0.0838   0.7118     C
N       0.3475   0.4491    0.493     N
H       0.3476   0.3618   0.5781     H
H       0.3477   0.0192   0.1487     H
O       0.3482   0.7727   0.3142     O
H       0.3485   0.3683   0.4834     H
H        0.349   0.4768   0.0273     H
C       0.3517   0.7287   0.7738     C
Er     0.35207  0.85207  0.40152    Er
Er     0.35207  0.85207  0.90152    Er
O       0.3525   0.2409   0.7554     O
O       0.3527   0.2425   0.2552     O
H       0.3529   0.4825   0.5262     H
H       0.3534   0.1133   0.6946     H
H       0.3539   0.1208   0.2053     H
N        0.355   0.4498   0.9991     N
H       0.3554   0.0145   0.6465     H
O       0.3563   0.7778   0.8188     O
H       0.3567   0.3645   0.0866     H
C       0.3568   0.7328    0.278     C
H       0.3581   0.3727   0.9894     H
C       0.3584   0.0371   0.1939     C
C       0.3594   0.0956   0.2265     C
C       0.3598    0.243   0.4648     C
H       0.3616    0.934   0.2917     H
H       0.3618   0.5781   0.3476     H
H       0.3639   0.1538   0.5358     H
H       0.3645   0.0866   0.3567     H
O       0.3664   0.9643   0.4606     O
C       0.3677   0.2184   0.0015     C
H       0.3683   0.4834   0.3485     H
C       0.3685   0.1174   0.2901     C
C       0.3698   0.0776   0.3187     C
H       0.3708   0.2821   0.9668     H
H       0.3727   0.9894   0.3581     H
N       0.3731   0.9663   0.0086     N
C       0.3732    0.005   0.2283     C
H        0.374   0.1598   0.3142     H
H       0.3776   0.5364   0.1533     H
C       0.3784   0.1806   0.5179     C
C       0.3788   0.0241   0.2909     C
H         0.38   0.9692    0.209     H
C       0.3803   0.4167   0.5076     C
O       0.3813   0.7957   0.9619     O
C       0.3831   0.6303   0.7496     C
O       0.3836   0.6199   0.2258     O
O       0.3851   0.3072   0.3903     O
C        0.386   0.4042   0.6095     C
O       0.3862   0.0199   0.0544     O
C       0.3882   0.9819   0.3255     C
H       0.3883   0.4033   0.6921     H
H         0.39   0.7153   0.2122     H
O       0.3903   0.3851   0.3072     O
N       0.3927   0.2624   0.7363     N
O       0.3932   0.2223   0.6874     O
H       0.3932   0.5353   0.2216     H
C       0.3944   0.6939   0.7878     C
O       0.3952   0.4325     0.93     O
N       0.3954   0.7446   0.2486     N
C       0.3955   0.4773    0.977     C
Er     0.40152  0.35207  0.85207    Er
C       0.4028   0.5642   0.2023     C
H       0.4033   0.6921   0.3883     H
C       0.4042   0.6095    0.386     C
O       0.4094   0.9396   0.0197     O
H       0.4111   0.2469   0.0394     H
C       0.4127   0.4264   0.6764     C
H       0.4142    0.424   0.4937     H
C       0.4152   0.2585   0.4584     C
C        0.416   0.4448   0.5881     C
C       0.4167   0.5076   0.3803     C
H        0.424   0.4937   0.4142     H
H       0.4241   0.0451   0.9349     H
H       0.4263   0.5741   0.7365     H
C       0.4264   0.6764   0.4127     C
H       0.4278   0.8451   0.2876     H
O         0.43   0.9325   0.8952     O
O       0.4325     0.93   0.3952     O
C       0.4327   0.6148   0.7665     C
H        0.434   0.8616   0.7917     H
C       0.4345   0.4365   0.3112     C
H       0.4349   0.5451   0.9241     H
C        0.436   0.1963    0.516     C
C       0.4365   0.3112   0.4345     C
H       0.4374   0.0913   0.5764     H
O       0.4377   0.3248   0.7702     O
H       0.4386   0.8299   0.1822     H
O       0.4396   0.9094   0.5197     O
N       0.4439   0.8278   0.9827     N
C       0.4448   0.5881    0.416     C
C       0.4458   0.5507   0.0087     C
O       0.4474   0.4502   0.8373     O
C       0.4477   0.8165   0.2903     C
C       0.4488   0.2293   0.4828     C
H       0.4491   0.3311   0.2589     H
N       0.4491    0.493   0.3475     N
N       0.4498   0.9991    0.355     N
O       0.4502   0.8373   0.4474     O
O       0.4553   0.5836   0.1139     O
C       0.4559   0.7375   0.8456     C
H       0.4569    0.147   0.0168     H
C       0.4584   0.4152   0.2585     C
C       0.4597   0.5766   0.9704     C
O       0.4606   0.3664   0.9643     O
O       0.4619   0.2957   0.8813     O
O       0.4643   0.8664   0.9606     O
H       0.4646   0.6648    0.192     H
C       0.4648   0.3598    0.243     C
N       0.4663   0.8731   0.5086     N
H       0.4664   0.1846   0.5372     H
H       0.4668   0.7821   0.8708     H
H       0.4692     0.88    0.709     H
C       0.4704   0.0766   0.9597     C
H       0.4705    0.165   0.1798     H
C       0.4721   0.6043    0.071     C
H       0.4722   0.8288   0.3375     H
C       0.4745   0.4816   0.7208     C
C        0.476   0.6016   0.2273     C
H       0.4768   0.0273    0.349     H
C        0.477   0.9773   0.8955     C
H       0.4773     0.52   0.1681     H
C       0.4773    0.977   0.3955     C
H       0.4782   0.1787   0.6846     H
C       0.4803   0.8332   0.2047     C
O       0.4804   0.5117   0.2468     O
C       0.4811    0.498   0.6324     C
C       0.4816   0.7208   0.4745     C
C       0.4819   0.8882   0.8255     C
H       0.4825   0.5262   0.3529     H
N       0.4827   0.3278   0.9439     N
C       0.4828   0.4488   0.2293     C
H       0.4834   0.3485   0.3683     H
C       0.4835   0.1184   0.6079     C
O       0.4847   0.8198   0.0225     O
C       0.4853   0.1378   0.0015     C
C       0.4865   0.6374   0.1894     C
H       0.4894   0.8727   0.8581     H
H       0.4916   0.4982   0.7672     H
C       0.4923   0.6577   0.8269     C
C       0.4927   0.3446   0.2063     C
N        0.493   0.3475   0.4491     N
H       0.4937   0.4142    0.424     H
H       0.4945    0.305   0.1976     H
C       0.4953    0.824   0.2601     C
C        0.498   0.6324   0.4811     C
C       0.4982     0.55   0.2165     C
H       0.4982   0.7672   0.4916     H
N       0.4991   0.9498    0.855     N
H       0.5001   0.1729   0.2836     H
C       0.5015   0.6378   0.9853     C
C       0.5015   0.7184   0.8677     C
H       0.5037   0.6892   0.3115     H
H        0.504   0.5234   0.6174     H
C        0.505   0.8732   0.7283     C
C        0.507    0.174    0.668     C
C       0.5075     0.67   0.0902     C
C       0.5076   0.3803   0.4167     C
N       0.5086   0.4663   0.8731     N
C       0.5087   0.0507   0.9458     C
O       0.5117   0.2468   0.4804     O
C       0.5122   0.5136   0.6982     C
C       0.5136   0.6982   0.5122     C
H       0.5137   0.6356   0.3305     H
H       0.5145   0.8554   0.1465     H
H       0.5149   0.0616   0.5616     H
C        0.516   0.1873   0.2128     C
C        0.516    0.436   0.1963     C
H       0.5168    0.647   0.9569     H
C       0.5179   0.3784   0.1806     C
C       0.5192   0.6848   0.0457     C
H       0.5192   0.8477   0.6487     H
C       0.5193   0.6566   0.3033     C
O       0.5197   0.4396   0.9094     O
O       0.5199   0.8862   0.5544     O
H         0.52   0.1681   0.4773     H
O       0.5225   0.3198   0.9847     O
H       0.5234   0.6174    0.504     H
H       0.5234    0.704   0.1336     H
C       0.5241   0.8788   0.7909     C
C       0.5243   0.8465   0.1822     C
H       0.5255   0.6457   0.8396     H
H       0.5262   0.3529   0.4825     H
H       0.5273   0.9768    0.849     H
C       0.5297   0.1044   0.5958     C
C       0.5335   0.1911   0.2734     C
H       0.5345   0.6673   0.2087     H
H       0.5353   0.2216   0.3932     H
H       0.5358   0.3639   0.1538     H
H       0.5364   0.1533   0.3776     H
C       0.5371   0.8584   0.6939     C
H       0.5372   0.4664   0.1846     H
H       0.5394   0.7469   0.9111     H
H       0.5407   0.7302   0.0574     H
H       0.5451   0.9241   0.4349     H
H       0.5452   0.7271   0.5582     H
C       0.5457   0.1848   0.0192     C
H       0.5469   0.5728   0.2353     H
C         0.55   0.2165   0.4982     C
C       0.5507   0.0087   0.4458     C
H       0.5537   0.2189   0.1612     H
O       0.5544   0.5199   0.8862     O
H       0.5574   0.2302   0.0407     H
C       0.5576    0.832   0.2933     C
H       0.5582   0.5452   0.7271     H
H       0.5616   0.0149   0.0616     H
H       0.5616   0.5149   0.0616     H
C       0.5637   0.2153   0.2001     C
C       0.5642   0.2023   0.4028     C
C        0.571   0.1043   0.9721     C
H        0.572   0.8333   0.3349     H
H       0.5728   0.2353   0.5469     H
C       0.5732    0.222   0.7026     C
H       0.5741   0.7365   0.4263     H
H       0.5764   0.4374   0.0913     H
C       0.5766   0.9704   0.4597     C
C       0.5776   0.8698   0.8187     C
H       0.5781   0.3476   0.3618     H
O       0.5836   0.1139   0.4553     O
C       0.5838   0.8471   0.2118     C
H       0.5866   0.8645   0.8567     H
C       0.5881    0.416   0.4448     C
H       0.5885   0.2626   0.7403     H
O       0.5892   0.6908   0.3228     O
C       0.5902     0.17   0.0075     C
H       0.5913   0.9374   0.0764     H
C       0.5956   0.8594   0.7265     C
C       0.5958   0.5297   0.1044     C
C       0.5964   0.1508   0.6324     C
C       0.5991   0.2212   0.3193     C
C       0.5992   0.8384   0.2666     C
C       0.6016   0.2273    0.476     C
C       0.6043    0.071   0.4721     C
C       0.6044   0.0297   0.0958     C
C       0.6079   0.4835   0.1184     C
C       0.6095    0.386   0.4042     C
H       0.6133   0.8534   0.1946     H
O       0.6139   0.0836   0.9553     O
C       0.6148   0.7665   0.4327     C
H       0.6174    0.504   0.5234     H
C       0.6174   0.8685   0.7901     C
C       0.6184   0.9835   0.1079     C
C       0.6187   0.2125   0.6837     C
O       0.6199   0.2258   0.3836     O
H       0.6208   0.8539   0.7053     H
H       0.6223    0.627   0.1405     H
H        0.627   0.1405   0.6223     H
C       0.6279   0.2385   0.2465     C
C       0.6303   0.7496   0.3831     C
C       0.6324   0.4811    0.498     C
C       0.6324   0.5964   0.1508     C
H       0.6336    0.204   0.0234     H
H       0.6356   0.3305   0.5137     H
C       0.6374   0.1894   0.4865     C
C       0.6378   0.9853   0.5015     C
H       0.6386   0.8366    0.286     H
H       0.6405    0.127   0.1223     H
H       0.6457   0.8396   0.5255     H
H       0.6465   0.3554   0.0145     H
H        0.647   0.9569   0.5168     H
O       0.6485   0.6944   0.8215     O
H       0.6487   0.5192   0.8477     H
C       0.6507   0.2474   0.3087     C
C       0.6508   0.0964   0.1324     C
H       0.6533   0.0364   0.8776     H
H       0.6538   0.8639   0.0358     H
C       0.6566   0.3033   0.5193     C
C       0.6577   0.8269   0.4923     C
H       0.6598    0.874   0.8142     H
H       0.6601   0.2497   0.2331     H
H       0.6612   0.7189   0.0537     H
H       0.6648    0.192   0.4646     H
H        0.665   0.9705   0.6798     H
H       0.6673   0.2087   0.5345     H
C        0.668    0.507    0.174     C
H       0.6681     0.02   0.9773     H
H       0.6685   0.6761    0.308     H
C         0.67   0.0902   0.5075     C
H       0.6729   0.0001   0.7836     H
C        0.674    0.007    0.168     C
H       0.6761    0.308   0.6685     H
C       0.6764   0.4127   0.4264     C
H       0.6787   0.9782   0.1846     H
H       0.6798    0.665   0.9705     H
C       0.6806   0.8784   0.0179     C
H       0.6822   0.3299   0.9386     H
C       0.6822   0.3465   0.0243     C
C       0.6837   0.6187   0.2125     C
H       0.6846   0.4782   0.1787     H
H       0.6846   0.9664   0.0372     H
C       0.6848   0.0457   0.5192     C
O        0.685   0.7411   0.7677     O
C       0.6873    0.016   0.7128     C
O       0.6874   0.3932   0.2223     O
H       0.6892   0.3115   0.5037     H
C       0.6894   0.1374   0.9865     C
O       0.6908   0.3228   0.5892     O
C       0.6911   0.0335   0.7734     C
H        0.692   0.1648   0.9646     H
H       0.6921   0.3883   0.4033     H
C       0.6939   0.2599   0.7243     C
C       0.6939   0.5371   0.8584     C
C       0.6939   0.7878   0.3944     C
O       0.6944   0.8215   0.6485     O
H       0.6946   0.3534   0.1133     H
N       0.6949   0.7214   0.8105     N
C       0.6963    0.936    0.016     C
H       0.6976    0.805   0.9945     H
C       0.6982   0.5122   0.5136     C
N        0.699   0.7074    0.308     N
C       0.7001   0.7153   0.0637     C
C       0.7023   0.0642   0.9028     C
C       0.7026   0.5732    0.222     C
H        0.704   0.1336   0.5234     H
C       0.7047   0.3332   0.9803     C
H       0.7053   0.6208   0.8539     H
C       0.7063   0.8446   0.9927     C
N       0.7074    0.308    0.699     N
H       0.7087   0.1673   0.0345     H
H       0.7087   0.2839   0.7722     H
H        0.709   0.4692     0.88     H
C       0.7118   0.3471   0.0838     C
H       0.7122   0.2153     0.89     H
C       0.7125   0.1187   0.1837     C
C       0.7128   0.6873    0.016     C
C       0.7153   0.0637   0.7001     C
H       0.7153   0.2122     0.39     H
C       0.7165     0.05   0.9982     C
H       0.7177    0.235   0.7179     H
H       0.7179   0.7177    0.235     H
C       0.7184   0.8677   0.5015     C
H       0.7189   0.0537   0.6612     H
C       0.7208   0.4745   0.4816     C
C       0.7212   0.0991   0.8193     C
N       0.7214   0.8105   0.6949     N
H       0.7216   0.0353   0.8932     H
C        0.722   0.0732   0.2026     C
O       0.7223   0.8932   0.1874     O
C       0.7243   0.6939   0.2599     C
O       0.7258   0.1199   0.8836     O
C       0.7265   0.5956   0.8594     C
H       0.7271   0.5582   0.5452     H
C       0.7273   0.1016    0.976     C
C       0.7283    0.505   0.8732     C
C       0.7287   0.7738   0.3517     C
C       0.7293   0.9488   0.9828     C
H       0.7302   0.0574   0.5407     H
C       0.7328    0.278   0.3568     C
H       0.7331   0.7497   0.1601     H
H        0.735   0.2177   0.2179     H
H       0.7353   0.0728   0.0469     H
N       0.7363   0.3927   0.2624     N
H       0.7365   0.4263   0.5741     H
C       0.7375   0.8456   0.4559     C
C       0.7385   0.1279   0.7465     C
H       0.7403   0.5885   0.2626     H
O       0.7409   0.8525   0.2554     O
O       0.7411   0.7677    0.685     O
O       0.7425   0.8527   0.7552     O
C        0.743   0.8598   0.9648     C
N       0.7446   0.2486   0.3954     N
C       0.7465   0.7385   0.1279     C
O       0.7468   0.0117   0.9804     O
H       0.7469   0.9111   0.5394     H
C       0.7474   0.1507   0.8087     C
N       0.7486   0.2446   0.8954     N
C       0.7496   0.3831   0.6303     C
H       0.7497   0.1601   0.7331     H
O       0.7552   0.7425   0.8527     O
O       0.7554   0.3525   0.2409     O
C       0.7585   0.9152   0.9584     C
H       0.7589   0.8311   0.9491     H
C       0.7599   0.1939   0.2243     C
C       0.7601    0.324   0.9953     C
N       0.7624   0.8927   0.2363     N
H       0.7626   0.0885   0.2403     H
C       0.7665   0.4327   0.6148     C
C       0.7666   0.3384   0.0992     C
H       0.7672   0.4916   0.4982     H
O       0.7677    0.685   0.7411     O
O       0.7702   0.4377   0.3248     O
H       0.7722   0.7087   0.2839     H
O       0.7727   0.3142   0.3482     O
C       0.7734   0.6911   0.0335     C
C       0.7738   0.3517   0.7287     C
O       0.7778   0.8188   0.3563     O
C        0.778   0.2328   0.8568     C
H       0.7821   0.8708   0.4668     H
H       0.7836   0.6729   0.0001     H
H       0.7839   0.2087   0.2722     H
H        0.786   0.3366   0.1386     H
H       0.7876   0.3451   0.9278     H
C       0.7878   0.3944   0.6939     C
C       0.7901   0.6174   0.8685     C
C       0.7903   0.3165   0.9477     C
C       0.7909   0.5241   0.8788     C
H       0.7917    0.434   0.8616     H
C       0.7933    0.332   0.0576     C
O       0.7957   0.9619   0.3813     O
Er     0.80283  0.80283  0.80283    Er
C       0.8033   0.1566   0.0193     C
H        0.805   0.9945   0.6976     H
O       0.8072   0.8851   0.8903     O
H        0.808   0.1761   0.1685     H
N        0.808   0.2074    0.199     N
C       0.8087   0.7474   0.1507     C
N       0.8105   0.6949   0.7214     N
C       0.8112   0.9365   0.9345     C
H       0.8115   0.1892   0.0037     H
O       0.8142   0.2727   0.8482     O
H       0.8142   0.6598    0.874     H
C       0.8165   0.2903   0.4477     C
C       0.8187   0.5776   0.8698     C
O       0.8188   0.3563   0.7778     O
C       0.8193   0.7212   0.0991     C
O       0.8198   0.0225   0.4847     O
O       0.8215   0.6485   0.6944     O
O       0.8228   0.1908   0.0892     O
C        0.824   0.2601   0.4953     C
O       0.8248   0.9377   0.2702     O
C       0.8255   0.4819   0.8882     C
C       0.8269   0.4923   0.6577     C
N       0.8278   0.9827   0.4439     N
H       0.8288   0.3375   0.4722     H
H       0.8299   0.1822   0.4386     H
H       0.8305   0.1356   0.0137     H
H       0.8311   0.9491   0.7589     H
C        0.832   0.2933   0.5576     C
C       0.8332   0.2047   0.4803     C
H       0.8333   0.3349    0.572     H
H       0.8349   0.3333    0.072     H
H       0.8366    0.286   0.6386     H
O       0.8373   0.4474   0.4502     O
H       0.8375   0.3288   0.9722     H
C       0.8384   0.2666   0.5992     C
H       0.8396   0.5255   0.6457     H
C       0.8446   0.9927   0.7063     C
H       0.8451   0.2876   0.4278     H
C       0.8456   0.4559   0.7375     C
C       0.8465   0.1822   0.5243     C
C       0.8471   0.2118   0.5838     C
N       0.8475    0.993   0.9491     N
H       0.8476   0.0781   0.8618     H
H       0.8477   0.6487   0.5192     H
O       0.8482   0.8142   0.2727     O
H       0.8485   0.9834   0.8683     H
H        0.849   0.5273   0.9768     H
C       0.8517   0.2738   0.2287     C
Er     0.85207  0.40152  0.35207    Er
Er     0.85207  0.90152  0.35207    Er
O       0.8525   0.2554   0.7409     O
O       0.8527   0.7552   0.7425     O
H       0.8529   0.0262   0.9825     H
H       0.8534   0.1946   0.6133     H
H       0.8539   0.7053   0.6208     H
N        0.855   0.4991   0.9498     N
H       0.8554   0.1465   0.5145     H
O       0.8563   0.3188   0.2778     O
H       0.8567   0.5866   0.8645     H
C       0.8568    0.778   0.2328     C
H       0.8581   0.4894   0.8727     H
C       0.8584   0.6939   0.5371     C
C       0.8594   0.7265   0.5956     C
C       0.8598   0.9648    0.743     C
H       0.8616   0.7917    0.434     H
H       0.8618   0.8476   0.0781     H
H       0.8639   0.0358   0.6538     H
H       0.8645   0.8567   0.5866     H
O       0.8664   0.9606   0.4643     O
C       0.8677   0.5015   0.7184     C
H       0.8683   0.8485   0.9834     H
C       0.8685   0.7901   0.6174     C
C       0.8698   0.8187   0.5776     C
H       0.8708   0.4668   0.7821     H
H       0.8727   0.8581   0.4894     H
N       0.8731   0.5086   0.4663     N
C       0.8732   0.7283    0.505     C
H        0.874   0.8142   0.6598     H
H       0.8776   0.6533   0.0364     H
C       0.8784   0.0179   0.6806     C
C       0.8788   0.7909   0.5241     C
H         0.88    0.709   0.4692     H
C       0.8803   0.0076   0.9167     C
O       0.8813   0.4619   0.2957     O
C       0.8831   0.2496   0.1303     C
O       0.8836   0.7258   0.1199     O
O       0.8851   0.8903   0.8072     O
C        0.886   0.1095   0.9042     C
O       0.8862   0.5544   0.5199     O
C       0.8882   0.8255   0.4819     C
H       0.8883   0.1921   0.9033     H
H         0.89   0.7122   0.2153     H
O       0.8903   0.8072   0.8851     O
N       0.8927   0.2363   0.7624     N
O       0.8932   0.1874   0.7223     O
H       0.8932   0.7216   0.0353     H
C       0.8944   0.2878   0.1939     C
O       0.8952     0.43   0.9325     O
N       0.8954   0.7486   0.2446     N
C       0.8955    0.477   0.9773     C
Er     0.90152  0.35207  0.85207    Er
C       0.9028   0.7023   0.0642     C
H       0.9033   0.8883   0.1921     H
C       0.9042    0.886   0.1095     C
O       0.9094   0.5197   0.4396     O
H       0.9111   0.5394   0.7469     H
C       0.9127   0.1764   0.9264     C
H       0.9142   0.9937    0.924     H
C       0.9152   0.9584   0.7585     C
C        0.916   0.0881   0.9448     C
C       0.9167   0.8803   0.0076     C
H        0.924   0.9142   0.9937     H
H       0.9241   0.4349   0.5451     H
H       0.9263   0.2365   0.0741     H
C       0.9264   0.9127   0.1764     C
H       0.9278   0.7876   0.3451     H
O         0.93   0.3952   0.4325     O
O       0.9325   0.8952     0.43     O
C       0.9327   0.2665   0.1148     C
H        0.934   0.2917   0.3616     H
C       0.9345   0.8112   0.9365     C
H       0.9349   0.4241   0.0451     H
C        0.936    0.016   0.6963     C
C       0.9365   0.9345   0.8112     C
H       0.9374   0.0764   0.5913     H
O       0.9377   0.2702   0.8248     O
H       0.9386   0.6822   0.3299     H
O       0.9396   0.0197   0.4094     O
N       0.9439   0.4827   0.3278     N
C       0.9448    0.916   0.0881     C
C       0.9458   0.5087   0.0507     C
O       0.9474   0.3373   0.9502     O
C       0.9477   0.7903   0.3165     C
C       0.9488   0.9828   0.7293     C
H       0.9491   0.7589   0.8311     H
N       0.9491   0.8475    0.993     N
N       0.9498    0.855   0.4991     N
O       0.9502   0.9474   0.3373     O
O       0.9553   0.6139   0.0836     O
C       0.9559   0.3456   0.2375     C
H       0.9569   0.5168    0.647     H
C       0.9584   0.7585   0.9152     C
C       0.9597   0.4704   0.0766     C
O       0.9606   0.4643   0.8664     O
O       0.9619   0.3813   0.7957     O
O       0.9643   0.4606   0.3664     O
H       0.9646    0.692   0.1648     H
C       0.9648    0.743   0.8598     C
N       0.9663   0.0086   0.3731     N
H       0.9664   0.0372   0.6846     H
H       0.9668   0.3708   0.2821     H
H       0.9692    0.209     0.38     H
C       0.9704   0.4597   0.5766     C
H       0.9705   0.6798    0.665     H
C       0.9721    0.571   0.1043     C
H       0.9722   0.8375   0.3288     H
C       0.9745   0.2208   0.9816     C
C        0.976   0.7273   0.1016     C
H       0.9768    0.849   0.5273     H
C        0.977   0.3955   0.4773     C
H       0.9773   0.6681     0.02     H
C       0.9773   0.8955    0.477     C
H       0.9782   0.1846   0.6787     H
C       0.9803   0.7047   0.3332     C
O       0.9804   0.7468   0.0117     O
C       0.9811   0.1324    0.998     C
C       0.9816   0.9745   0.2208     C
C       0.9819   0.3255   0.3882     C
H       0.9825   0.8529   0.0262     H
N       0.9827   0.4439   0.8278     N
C       0.9828   0.7293   0.9488     C
H       0.9834   0.8683   0.8485     H
C       0.9835   0.1079   0.6184     C
O       0.9847   0.5225   0.3198     O
C       0.9853   0.5015   0.6378     C
C       0.9865   0.6894   0.1374     C
H       0.9894   0.3581   0.3727     H
H       0.9916   0.2672   0.9982     H
C       0.9923   0.3269   0.1577     C
C       0.9927   0.7063   0.8446     C
N        0.993   0.9491   0.8475     N
H       0.9937    0.924   0.9142     H
H       0.9945   0.6976    0.805     H
C       0.9953   0.7601    0.324     C
C        0.998   0.9811   0.1324     C
C       0.9982   0.7165     0.05     C
H       0.9982   0.9916   0.2672     H
N       0.9991    0.355   0.4498     N
