data_I
_chemical_name_common  '/home/zhangsd/repos/MofS-CGCNN/ML/data/WS24/clean_cifs/LOQSEQ'
_cell_length_a 24.25010
_cell_length_b 24.25010
_cell_length_c 24.25010
_cell_angle_alpha 109.45800
_cell_angle_beta  109.45800
_cell_angle_gamma 109.45800
_space_group_name_H-M_alt      'P 1'


loop_
_space_group_symop_operation_xyz
  'x, y, z' 

loop_
_atom_site_label
_atom_site_fract_x
_atom_site_fract_y
_atom_site_fract_z
_atom_site_type_symbol
C       0.0004   0.4368   0.5503     C
C       0.0004   0.7196   0.0492     C
H       0.0021   0.2599   0.9884     H
C       0.0021   0.4848   0.1362     C
C       0.0037    0.683   0.9343     C
C        0.005   0.5901   0.1636     C
C        0.005   0.7128   0.8504     C
C       0.0065   0.7074   0.6743     C
H       0.0073    0.878   0.0264     H
C       0.0082   0.3593   0.2156     C
H       0.0085   0.6486   0.3452     H
C       0.0088   0.1895   0.0122     C
O       0.0091   0.9791   0.7465     O
C       0.0104   0.9181   0.8731     C
N       0.0112   0.3762   0.9645     N
H       0.0118   0.6588   0.9558     H
C       0.0122   0.0088   0.1895     C
H       0.0127   0.3321   0.4714     H
H       0.0142   0.7099   0.8156     H
H       0.0157   0.4574   0.1491     H
C        0.016   0.1045   0.6181     C
H       0.0167   0.9934   0.1047     H
C       0.0176    0.677   0.8826     C
C       0.0189   0.2076   0.3707     C
H       0.0192   0.3955      0.4     H
C       0.0199   0.6875   0.3417     C
O       0.0201   0.4878   0.8224     O
C       0.0201    0.807   0.1518     C
H       0.0201   0.9828   0.6721     H
H       0.0206   0.6339   0.1957     H
O       0.0207   0.4043    0.932     O
H       0.0212   0.3348   0.1356     H
H       0.0213   0.8315   0.1273     H
C        0.023   0.7721   0.6819     C
O        0.024   0.0576   0.3999     O
H       0.0264   0.0073    0.878     H
C       0.0267   0.5498   0.1831     C
C       0.0325   0.3128   0.3806     C
H       0.0326   0.8905   0.7198     H
H       0.0335   0.7079   0.1664     H
H       0.0344    0.238   0.7308     H
H        0.035   0.6494   0.8694     H
H        0.036   0.9399   0.4153     H
H        0.038   0.8741    0.654     H
H       0.0431   0.6506   0.6945     H
C       0.0461    0.208   0.7092     C
H       0.0491   0.0524   0.2176     H
C       0.0492   0.0004   0.7196     C
H       0.0493   0.7417   0.0718     H
C       0.0498   0.5267   0.6831     C
C       0.0503   0.9368   0.5004     C
H       0.0521   0.3949   0.2471     H
H       0.0524   0.2176   0.0491     H
C       0.0533   0.8034   0.3322     C
C        0.055   0.6931   0.6989     C
O       0.0576   0.3999    0.024     O
H       0.0578   0.5671    0.228     H
H        0.059   0.9133   0.2421     H
C       0.0636   0.9004   0.7029     C
H       0.0641    0.578   0.9837     H
H       0.0647   0.8422   0.3288     H
C       0.0649   0.4604   0.5966     C
H       0.0671   0.5578    0.728     H
C       0.0683   0.9565   0.4594     C
H       0.0718   0.0493   0.7417     H
C       0.0732   0.2187   0.3605     C
H       0.0774   0.8655   0.8356     H
H        0.078   0.5641   0.4837     H
C       0.0811   0.1206   0.6473     C
C       0.0821   0.9383   0.9099     C
C       0.0838   0.7259   0.3546     C
C        0.086   0.3237   0.3711     C
H       0.0865   0.1864   0.3528     H
O       0.0868   0.8221   0.1942     O
O       0.0885   0.9585   0.6196     O
C       0.0901    0.505   0.6636     C
H       0.0912   0.6261   0.0936     H
C       0.0915   0.8189   0.7151     C
H       0.0936   0.0912   0.6261     H
C       0.0966   0.9604   0.5649     C
C       0.1002   0.7843   0.3506     C
C       0.1007   0.9792   0.7271     C
C       0.1045   0.6181    0.016     C
C       0.1045   0.9264   0.2651     C
H       0.1047   0.0167   0.9934     H
C       0.1058   0.9024   0.8792     C
C       0.1076   0.2769   0.3612     C
H       0.1085   0.3631    0.371     H
C       0.1124   0.2225   0.7382     C
O       0.1133   0.8836   0.7282     O
H       0.1159   0.7127    0.366     H
C       0.1181   0.6045    0.516     C
O       0.1196   0.4585   0.5885     O
C       0.1206   0.6473   0.0811     C
C       0.1223   0.9929   0.9738     C
C       0.1244   0.7422   0.7316     C
H       0.1261   0.5912   0.5936     H
C       0.1266   0.8826    0.243     C
H       0.1273   0.0213   0.8315     H
C       0.1295   0.1782   0.7069     C
H       0.1295    0.641   0.4531     H
H       0.1339   0.5206   0.6957     H
C       0.1352   0.9862   0.6889     C
H       0.1356   0.0212   0.3348     H
C       0.1362   0.0021   0.4848     C
H        0.141   0.6295   0.9531     H
C        0.141   0.8052   0.7396     C
H       0.1439   0.8109   0.3607     H
H        0.145    0.285   0.3553     H
H       0.1452   0.2622   0.7788     H
C       0.1473   0.6206   0.5811     C
H       0.1486   0.5085   0.8452     H
H       0.1491   0.0157   0.4574     H
C       0.1493   0.6502   0.4976     C
H       0.1494    0.535   0.3694     H
C       0.1501   0.9905   0.3222     C
C       0.1502   0.6493   0.9976     C
H       0.1506   0.5431   0.1945     H
C       0.1518   0.0201    0.807     C
H       0.1519   0.1744   0.4614     H
H        0.154   0.3741    0.538     H
H       0.1578   0.7317   0.7471     H
H       0.1588   0.5118   0.4558     H
O       0.1589   0.3156   0.1818     O
H       0.1612   0.9631   0.6923     H
C       0.1636    0.005   0.5901     C
H       0.1657   0.2829     0.49     H
H       0.1664   0.0335   0.7079     H
H       0.1686   0.3715   0.9968     H
H       0.1721   0.4828   0.5201     H
H       0.1739   0.1755   0.8125     H
C       0.1742   0.9221   0.9147     C
C       0.1743   0.2074   0.5065     C
H       0.1744   0.4614   0.1519     H
H       0.1755   0.8125   0.1739     H
C        0.177   0.5176   0.3826     C
C       0.1782   0.7069   0.1295     C
H       0.1784   0.9993   0.8189     H
H       0.1816   0.4299   0.8143     H
O       0.1818   0.1589   0.3156     O
C       0.1819   0.2721    0.523     C
C        0.183   0.5037   0.4343     C
C       0.1831   0.0267   0.5498     C
H       0.1864   0.3528   0.0865     H
C       0.1875   0.5199   0.8417     C
C       0.1889   0.4862   0.6352     C
C       0.1895   0.0122   0.0088     C
C       0.1897   0.8968   0.2866     C
O         0.19   0.2627   0.2321     O
H       0.1918   0.8985   0.8946     H
H       0.1923   0.4631   0.6612     H
C       0.1931    0.555   0.1989     C
O       0.1937   0.7129   0.8966     O
H       0.1937   0.7324   0.2259     H
O       0.1942   0.0868   0.8221     O
H       0.1945   0.1506   0.5431     H
H       0.1957   0.0206   0.6339     H
N       0.1983   0.8107   0.2084     N
C       0.1989   0.1931    0.555     C
H        0.201   0.8826    0.706     H
C       0.2029   0.4004   0.5636     C
C       0.2045   0.2125   0.7545     C
N       0.2048   0.3056   0.2122     N
H        0.206   0.3826    0.701     H
C       0.2069   0.6782   0.6295     C
C       0.2074   0.5065   0.1743     C
C       0.2075   0.4733   0.8236     C
C       0.2076   0.3707   0.0189     C
H       0.2079   0.5335   0.6664     H
C        0.208   0.7092   0.0461     C
N       0.2084   0.1983   0.8107     N
C       0.2092    0.708   0.5461     C
H       0.2099   0.5142   0.3156     H
N       0.2122   0.2048   0.3056     N
C       0.2125   0.7545   0.2045     C
H       0.2127   0.6159    0.866     H
C       0.2128    0.505   0.3504     C
O       0.2129   0.6937   0.3966     O
C       0.2147   0.9759   0.9785     C
C       0.2151   0.3189   0.5915     C
C       0.2156   0.0082   0.3593     C
C       0.2157   0.8537    0.776     C
H       0.2176   0.0491   0.0524     H
C       0.2187   0.3605   0.0732     C
C       0.2196   0.5004   0.5492     C
H       0.2198   0.3905   0.5326     H
C       0.2225   0.7382   0.1124     C
C       0.2234   0.4784   0.4552     C
H       0.2259   0.1937   0.7324     H
C       0.2259   0.5838   0.8546     C
H        0.226   0.2607   0.7709     H
C       0.2261   0.8587   0.2736     C
C       0.2271   0.4792   0.6007     C
H        0.228   0.0578   0.5671     H
O       0.2282   0.3836   0.6133     O
N       0.2291   0.8894   0.7437     N
O       0.2307   0.7424   0.3412     O
H       0.2308    0.738   0.5344     H
C       0.2316   0.2422   0.6244     C
H       0.2317   0.6578   0.2471     H
O       0.2321     0.19   0.2627     O
H       0.2324   0.6937   0.7259     H
C       0.2346   0.9594   0.3429     C
N       0.2361   0.7547   0.8913     N
H        0.238   0.7308   0.0344     H
C       0.2382   0.7225   0.6124     C
C       0.2396   0.3052    0.641     C
H       0.2417   0.5493   0.5718     H
H       0.2421    0.059   0.9133     H
C       0.2422   0.6244   0.2316     C
O       0.2424   0.7307   0.8412     O
C        0.243   0.1266   0.8826     C
N       0.2437   0.3894   0.7291     N
H       0.2463   0.3855   0.9594     H
O       0.2465   0.4791   0.5091     O
O       0.2467   0.2615   0.3554     O
H       0.2471   0.0521   0.3949     H
H       0.2471   0.2317   0.6578     H
C       0.2536   0.4783   0.3714     C
C       0.2542     0.38   0.9969     C
C       0.2545   0.7125   0.7045     C
N       0.2547   0.7361   0.3913     N
C       0.2593   0.4657   0.4233     C
H       0.2599   0.9884   0.0021     H
O       0.2605   0.8181   0.9265     O
H       0.2607   0.7709    0.226     H
O       0.2615   0.3554   0.2467     O
H       0.2622   0.7788   0.1452     H
O       0.2627   0.2321     0.19     O
C       0.2651   0.1045   0.9264     C
C       0.2654   0.4901   0.8188     C
O       0.2683   0.8435   0.8071     O
H       0.2709   0.7607    0.726     H
C       0.2721    0.523   0.1819     C
C       0.2736   0.2261   0.8587     C
C        0.276   0.3537   0.7157     C
C       0.2769   0.3612   0.1076     C
H       0.2773   0.4691   0.3497     H
H       0.2779   0.9693   0.3704     H
H       0.2788   0.7622   0.6452     H
O       0.2804   0.8584   0.3168     O
H       0.2829     0.49   0.1657     H
H       0.2843   0.4184   0.8266     H
C       0.2843   0.6002   0.8506     C
H        0.285   0.3553    0.145     H
C       0.2859   0.4401   0.7997     C
C       0.2866   0.1897   0.8968     C
Pr     0.29937  0.29937  0.29937    Pr
C       0.2997   0.9401   0.7859     C
C       0.3034   0.5533   0.8322     C
C       0.3052    0.641   0.2396     C
N       0.3056   0.2122   0.2048     N
C        0.307   0.5201   0.6518     C
O       0.3071   0.3435   0.7683     O
C       0.3075   0.4385   0.4317     C
O       0.3089    0.889   0.4692     O
H       0.3097   0.9627   0.8322     H
N       0.3107   0.6983   0.7084     N
H       0.3109   0.6439   0.8607     H
H       0.3125   0.6755   0.6739     H
C       0.3128   0.3806   0.0325     C
O       0.3139    0.391   0.3885     O
H       0.3143   0.9299   0.6816     H
O       0.3156   0.1818   0.1589     O
H       0.3156   0.2099   0.5142     H
O       0.3168   0.2804   0.8584     O
O       0.3181   0.7605   0.4265     O
C       0.3188   0.9901   0.7654     C
H       0.3189   0.4993   0.6784     H
C       0.3189   0.5915   0.2151     C
O       0.3221   0.5868   0.6942     O
C       0.3222   0.1501   0.9905     C
O       0.3224   0.9878   0.5201     O
C       0.3236   0.9733   0.7075     C
C       0.3237   0.3711    0.086     C
H       0.3265   0.3556   0.9499     H
H       0.3266   0.9184   0.7843     H
H       0.3288   0.0647   0.8422     H
H       0.3311   0.3762   0.4884     H
H       0.3315   0.5213   0.6273     H
H       0.3321   0.4714   0.0127     H
C       0.3322   0.0533   0.8034     C
H       0.3322   0.4627   0.8097     H
H       0.3348   0.1356   0.0212     H
H       0.3356   0.3655   0.5774     H
N       0.3391   0.9491   0.4872     N
O       0.3412   0.2307   0.7424     O
O       0.3413   0.9527   0.9517     O
C       0.3417   0.0199   0.6875     C
H       0.3422   0.5647   0.8288     H
C       0.3429   0.2346   0.9594     C
O       0.3435   0.7683   0.3071     O
H       0.3452   0.0085   0.6486     H
H       0.3497   0.2773   0.4691     H
C       0.3504   0.2128    0.505     C
Pr     0.35048  0.85083  0.90159    Pr
C       0.3505   0.3928   0.9958     C
C       0.3506   0.1002   0.7843     C
Pr     0.35083  0.85048  0.40159    Pr
N       0.3526   0.4533   0.9971     N
H       0.3528   0.0865   0.1864     H
C       0.3537   0.7157    0.276     C
C       0.3546   0.0838   0.7259     C
H       0.3553    0.145    0.285     H
O       0.3554   0.2467   0.2615     O
H       0.3556   0.9499   0.3265     H
N       0.3576   0.4653   0.4964     N
O       0.3584   0.7804   0.8168     O
C       0.3587   0.7261   0.7736     C
C       0.3593   0.2156   0.0082     C
C       0.3605   0.0732   0.2187     C
H       0.3607   0.1439   0.8109     H
C       0.3612   0.1076   0.2769     C
H       0.3631    0.371   0.1085     H
H       0.3655   0.5774   0.3356     H
H        0.366   0.1159   0.7127     H
H       0.3694   0.1494    0.535     H
H       0.3704   0.2779   0.9693     H
C       0.3707   0.0189   0.2076     C
H        0.371   0.1085   0.3631     H
C       0.3711    0.086   0.3237     C
C       0.3714   0.2536   0.4783     C
O       0.3714   0.9728   0.4621     O
H       0.3715   0.9968   0.1686     H
C       0.3731   0.4181   0.5104     C
H       0.3741    0.538    0.154     H
H       0.3762   0.4884   0.3311     H
N       0.3762   0.9645   0.0112     N
H        0.378   0.5073   0.5264     H
C       0.3792   0.4024   0.6058     C
C         0.38   0.9969   0.2542     C
C       0.3806   0.0325   0.3128     C
C       0.3826    0.177   0.5176     C
C       0.3826   0.6266    0.743     C
H       0.3826    0.701    0.206     H
O       0.3836   0.6133   0.2282     O
H       0.3855   0.9594   0.2463     H
O       0.3885   0.3139    0.391     O
O       0.3888   0.4265   0.9247     O
O        0.389   0.8089   0.9692     O
N       0.3894   0.7291   0.2437     N
C       0.3895   0.4793   0.9717     C
H       0.3905   0.5326   0.2198     H
O        0.391   0.3885   0.3139     O
N       0.3913   0.2547   0.7361     N
C       0.3928   0.9958   0.3505     C
H       0.3946   0.3985   0.6918     H
H       0.3949   0.2471   0.0521     H
H       0.3955      0.4   0.0192     H
O       0.3966   0.2129   0.6937     O
C       0.3968   0.6897   0.7866     C
H       0.3985   0.6918   0.3946     H
H       0.3996   0.4089   0.4901     H
O       0.3999    0.024   0.0576     O
H          0.4   0.0192   0.3955     H
C       0.4004   0.5636   0.2029     C
Pr     0.40159  0.35083  0.85048    Pr
C       0.4024   0.6058   0.3792     C
O       0.4043    0.932   0.0207     O
H       0.4089   0.4901   0.3996     H
C       0.4099   0.4383   0.5821     C
H       0.4133    0.559   0.7421     H
C       0.4147   0.4221   0.6742     C
H       0.4153    0.036   0.9399     H
C       0.4181   0.5104   0.3731     C
H       0.4184   0.8266   0.2843     H
C       0.4221   0.6742   0.4147     C
C       0.4233   0.2593   0.4657     C
O       0.4247   0.9265   0.8888     O
C       0.4264   0.6045   0.7651     C
O       0.4265   0.3181   0.7605     O
O       0.4265   0.9247   0.3888     O
H       0.4299   0.8143   0.1816     H
C       0.4317   0.3075   0.4385     C
O        0.432   0.9043   0.5207     O
C       0.4343    0.183   0.5037     C
C       0.4368   0.5503   0.0004     C
C       0.4383   0.5821   0.4099     C
C       0.4385   0.4317   0.3075     C
H       0.4399    0.536   0.9153     H
C       0.4401   0.7997   0.2859     C
N       0.4491   0.8391   0.9872     N
H       0.4499   0.8556   0.8265     H
O       0.4517   0.4527   0.8413     O
O       0.4527   0.8413   0.4517     O
H       0.4531   0.1295    0.641     H
N       0.4533   0.9971   0.3526     N
C       0.4552   0.2234   0.4784     C
H       0.4558   0.1588   0.5118     H
C       0.4565   0.5683   0.9594     C
H       0.4574   0.1491   0.0157     H
O       0.4585   0.5885   0.1196     O
C       0.4594   0.0683   0.9565     C
C       0.4594   0.7346   0.8429     C
H       0.4594   0.8855   0.7463     H
C       0.4604   0.5966   0.0649     C
H       0.4614   0.1519   0.1744     H
O       0.4621   0.3714   0.9728     O
H       0.4627   0.8097   0.3322     H
H       0.4631   0.6612   0.1923     H
N       0.4645   0.8762   0.5112     N
N       0.4653   0.4964   0.3576     N
C       0.4657   0.4233   0.2593     C
H       0.4691   0.3497   0.2773     H
O       0.4692   0.3089    0.889     O
H       0.4693   0.7779   0.8704     H
H       0.4714   0.0127   0.3321     H
C       0.4717   0.9793   0.8895     C
O       0.4728   0.8714   0.9621     O
C       0.4733   0.8236   0.2075     C
C       0.4738   0.4929   0.6223     C
C       0.4759   0.7147   0.4785     C
C       0.4783   0.3714   0.2536     C
C       0.4784   0.4552   0.2234     C
C       0.4785   0.4759   0.7147     C
O       0.4791   0.5091   0.2465     O
C       0.4792   0.6007   0.2271     C
C       0.4793   0.9717   0.3895     C
H       0.4828   0.5201   0.1721     H
H       0.4837    0.078   0.5641     H
C       0.4848   0.1362   0.0021     C
C       0.4862   0.6352   0.1889     C
N       0.4872   0.3391   0.9491     N
O       0.4878   0.8224   0.0201     O
H       0.4884   0.3311   0.3762     H
H       0.4884   0.7599   0.5021     H
H         0.49   0.1657   0.2829     H
H       0.4901   0.3996   0.4089     H
C       0.4901   0.8188   0.2654     C
C       0.4905   0.6501   0.8222     C
C       0.4929   0.6223   0.4738     C
H       0.4934   0.5167   0.6047     H
C       0.4958   0.8928   0.8505     C
N       0.4964   0.3576   0.4653     N
H       0.4968   0.8715   0.6686     H
C       0.4969     0.88   0.7542     C
N       0.4971   0.9533   0.8526     N
C       0.4976   0.1493   0.6502     C
H       0.4993   0.6784   0.3189     H
C       0.5004   0.0503   0.9368     C
C       0.5004   0.5492   0.2196     C
H       0.5021   0.4884   0.7599     H
C       0.5021   0.6362   0.9848     C
C       0.5037   0.4343    0.183     C
C        0.505   0.3504   0.2128     C
C        0.505   0.6636   0.0901     C
C       0.5065   0.1743   0.2074     C
H       0.5073   0.5264    0.378     H
C       0.5082   0.7156   0.8593     C
H       0.5085   0.8452   0.1486     H
C       0.5088   0.5122   0.6895     C
O       0.5091   0.2465   0.4791     O
C       0.5104   0.3731   0.4181     C
N       0.5112   0.4645   0.8762     N
H       0.5118   0.4558   0.1588     H
C       0.5122   0.6895   0.5088     C
H       0.5127   0.9714   0.8321     H
H       0.5142   0.3156   0.2099     H
H       0.5157   0.6491   0.9574     H
C        0.516   0.1181   0.6045     C
H       0.5167   0.6047   0.4934     H
C       0.5176   0.3826    0.177     C
C       0.5189   0.8707   0.7076     C
H       0.5192      0.9   0.8955     H
C       0.5199   0.8417   0.1875     C
H       0.5201   0.1721   0.4828     H
O       0.5201   0.3224   0.9878     O
C       0.5201   0.6518    0.307     C
H       0.5206   0.6957   0.1339     H
O       0.5207    0.432   0.9043     O
H       0.5212   0.6356   0.8348     H
H       0.5213   0.6273   0.3315     H
C        0.523   0.1819   0.2721     C
O        0.524   0.8999   0.5576     O
H       0.5264    0.378   0.5073     H
C       0.5267   0.6831   0.0498     C
C       0.5325   0.8806   0.8128     C
H       0.5326   0.2198   0.3905     H
H       0.5335   0.6664   0.2079     H
H       0.5344   0.2308    0.738     H
H        0.535   0.3694   0.1494     H
H        0.536   0.9153   0.4399     H
H        0.538    0.154   0.3741     H
H       0.5431   0.1945   0.1506     H
C       0.5461   0.2092    0.708     C
H       0.5491   0.7176   0.5524     H
C       0.5492   0.2196   0.5004     C
H       0.5493   0.5718   0.2417     H
C       0.5498   0.1831   0.0267     C
C       0.5503   0.0004   0.4368     C
H       0.5521   0.7471   0.8949     H
H       0.5524   0.5491   0.7176     H
C       0.5533   0.8322   0.3034     C
C        0.555   0.1989   0.1931     C
O       0.5576    0.524   0.8999     O
H       0.5578    0.728   0.0671     H
H        0.559   0.7421   0.4133     H
C       0.5636   0.2029   0.4004     C
H       0.5641   0.4837    0.078     H
H       0.5647   0.8288   0.3422     H
C       0.5649   0.0966   0.9604     C
H       0.5671    0.228   0.0578     H
C       0.5683   0.9594   0.4565     C
H       0.5718   0.2417   0.5493     H
C       0.5732   0.8605   0.7187     C
H       0.5774   0.3356   0.3655     H
H        0.578   0.9837   0.0641     H
C       0.5811   0.1473   0.6206     C
C       0.5821   0.4099   0.4383     C
C       0.5838   0.8546   0.2259     C
C        0.586   0.8711   0.8237     C
H       0.5865   0.8528   0.6864     H
O       0.5868   0.6942   0.3221     O
O       0.5885   0.1196   0.4585     O
C       0.5901   0.1636    0.005     C
H       0.5912   0.5936   0.1261     H
C       0.5915   0.2151   0.3189     C
H       0.5936   0.1261   0.5912     H
C       0.5966   0.0649   0.4604     C
C       0.6002   0.8506   0.2843     C
C       0.6007   0.2271   0.4792     C
C       0.6045    0.516   0.1181     C
C       0.6045   0.7651   0.4264     C
H       0.6047   0.4934   0.5167     H
C       0.6058   0.3792   0.4024     C
C       0.6076   0.8612   0.7769     C
H       0.6085    0.871   0.8631     H
C       0.6124   0.2382   0.7225     C
O       0.6133   0.2282   0.3836     O
H       0.6159    0.866   0.2127     H
C       0.6181    0.016   0.1045     C
O       0.6196   0.0885   0.9585     O
C       0.6206   0.5811   0.1473     C
C       0.6223   0.4738   0.4929     C
C       0.6244   0.2316   0.2422     C
H       0.6261   0.0936   0.0912     H
C       0.6266    0.743   0.3826     C
H       0.6273   0.3315   0.5213     H
C       0.6295   0.2069   0.6782     C
H       0.6295   0.9531    0.141     H
H       0.6339   0.1957   0.0206     H
C       0.6352   0.1889   0.4862     C
H       0.6356   0.8348   0.5212     H
C       0.6362   0.9848   0.5021     C
C        0.641   0.2396   0.3052     C
H        0.641   0.4531   0.1295     H
H       0.6439   0.8607   0.3109     H
H        0.645   0.8553    0.785     H
H       0.6452   0.2788   0.7622     H
C       0.6473   0.0811   0.1206     C
H       0.6486   0.3452   0.0085     H
H       0.6491   0.9574   0.5157     H
C       0.6493   0.9976   0.1502     C
H       0.6494   0.8694    0.035     H
C       0.6501   0.8222   0.4905     C
C       0.6502   0.4976   0.1493     C
H       0.6506   0.6945   0.0431     H
C       0.6518    0.307   0.5201     C
H       0.6519   0.9614   0.6744     H
H        0.654    0.038   0.8741     H
H       0.6578   0.2471   0.2317     H
H       0.6588   0.9558   0.0118     H
O       0.6589   0.6818   0.8156     O
H       0.6612   0.1923   0.4631     H
C       0.6636   0.0901    0.505     C
H       0.6657     0.99   0.7829     H
H       0.6664   0.2079   0.5335     H
H       0.6686   0.4968   0.8715     H
H       0.6721   0.0201   0.9828     H
H       0.6739   0.3125   0.6755     H
C       0.6742   0.4147   0.4221     C
C       0.6743   0.0065   0.7074     C
H       0.6744   0.6519   0.9614     H
H       0.6755   0.6739   0.3125     H
C        0.677   0.8826   0.0176     C
C       0.6782   0.6295   0.2069     C
H       0.6784   0.3189   0.4993     H
H       0.6816   0.3143   0.9299     H
O       0.6818   0.8156   0.6589     O
C       0.6819    0.023   0.7721     C
C        0.683   0.9343   0.0037     C
C       0.6831   0.0498   0.5267     C
H       0.6864   0.5865   0.8528     H
C       0.6875   0.3417   0.0199     C
C       0.6889   0.1352   0.9862     C
C       0.6895   0.5088   0.5122     C
C       0.6897   0.7866   0.3968     C
O         0.69   0.7321   0.7627     O
H       0.6918   0.3946   0.3985     H
H       0.6923   0.1612   0.9631     H
C       0.6931   0.6989    0.055     C
O       0.6937   0.3966   0.2129     O
H       0.6937   0.7259   0.2324     H
O       0.6942   0.3221   0.5868     O
H       0.6945   0.0431   0.6506     H
H       0.6957   0.1339   0.5206     H
N       0.6983   0.7084   0.3107     N
C       0.6989    0.055   0.6931     C
H        0.701    0.206   0.3826     H
C       0.7029   0.0636   0.9004     C
C       0.7045   0.2545   0.7125     C
N       0.7048   0.7122   0.8056     N
H        0.706    0.201   0.8826     H
C       0.7069   0.1295   0.1782     C
C       0.7074   0.6743   0.0065     C
C       0.7075   0.3236   0.9733     C
C       0.7076   0.5189   0.8707     C
H       0.7079   0.1664   0.0335     H
C        0.708   0.5461   0.2092     C
N       0.7084   0.3107   0.6983     N
C       0.7092   0.0461    0.208     C
H       0.7099   0.8156   0.0142     H
N       0.7122   0.8056   0.7048     N
C       0.7125   0.7045   0.2545     C
H       0.7127    0.366   0.1159     H
C       0.7128   0.8504    0.005     C
O       0.7129   0.8966   0.1937     O
C       0.7147   0.4785   0.4759     C
C       0.7151   0.0915   0.8189     C
C       0.7156   0.8593   0.5082     C
C       0.7157    0.276   0.3537     C
H       0.7176   0.5524   0.5491     H
C       0.7187   0.5732   0.8605     C
C       0.7196   0.0492   0.0004     C
H       0.7198   0.0326   0.8905     H
C       0.7225   0.6124   0.2382     C
C       0.7234   0.9552   0.9784     C
H       0.7259   0.2324   0.6937     H
C       0.7259   0.3546   0.0838     C
H        0.726   0.2709   0.7607     H
C       0.7261   0.7736   0.3587     C
C       0.7271   0.1007   0.9792     C
H        0.728   0.0671   0.5578     H
O       0.7282   0.1133   0.8836     O
N       0.7291   0.2437   0.3894     N
O       0.7307   0.8412   0.2424     O
H       0.7308   0.0344    0.238     H
C       0.7316   0.1244   0.7422     C
H       0.7317   0.7471   0.1578     H
O       0.7321   0.7627     0.69     O
H       0.7324   0.2259   0.1937     H
C       0.7346   0.8429   0.4594     C
N       0.7361   0.3913   0.2547     N
H        0.738   0.5344   0.2308     H
C       0.7382   0.1124   0.2225     C
C       0.7396    0.141   0.8052     C
H       0.7417   0.0718   0.0493     H
H       0.7421   0.4133    0.559     H
C       0.7422   0.7316   0.1244     C
O       0.7424   0.3412   0.2307     O
C        0.743   0.3826   0.6266     C
N       0.7437   0.2291   0.8894     N
H       0.7463   0.4594   0.8855     H
O       0.7465   0.0091   0.9791     O
O       0.7467   0.8554   0.7615     O
H       0.7471   0.1578   0.7317     H
H       0.7471   0.8949   0.5521     H
C       0.7536   0.8714   0.9783     C
C       0.7542   0.4969     0.88     C
C       0.7545   0.2045   0.2125     C
N       0.7547   0.8913   0.2361     N
C       0.7593   0.9233   0.9657     C
H       0.7599   0.5021   0.4884     H
O       0.7605   0.4265   0.3181     O
H       0.7607    0.726   0.2709     H
O       0.7615   0.7467   0.8554     O
H       0.7622   0.6452   0.2788     H
O       0.7627     0.69   0.7321     O
C       0.7651   0.4264   0.6045     C
C       0.7654   0.3188   0.9901     C
O       0.7683   0.3071   0.3435     O
H       0.7709    0.226   0.2607     H
C       0.7721   0.6819    0.023     C
C       0.7736   0.3587   0.7261     C
C        0.776   0.2157   0.8537     C
C       0.7769   0.6076   0.8612     C
H       0.7773   0.8497   0.9691     H
H       0.7779   0.8704   0.4693     H
H       0.7788   0.1452   0.2622     H
O       0.7804   0.8168   0.3584     O
H       0.7829   0.6657     0.99     H
H       0.7843   0.3266   0.9184     H
C       0.7843   0.3506   0.1002     C
H        0.785    0.645   0.8553     H
C       0.7859   0.2997   0.9401     C
C       0.7866   0.3968   0.6897     C
Pr     0.79937  0.79937  0.79937    Pr
C       0.7997   0.2859   0.4401     C
C       0.8034   0.3322   0.0533     C
C       0.8052   0.7396    0.141     C
N       0.8056   0.7048   0.7122     N
C        0.807   0.1518   0.0201     C
O       0.8071   0.2683   0.8435     O
C       0.8075   0.9317   0.9385     C
O       0.8089   0.9692    0.389     O
H       0.8097   0.3322   0.4627     H
N       0.8107   0.2084   0.1983     N
H       0.8109   0.3607   0.1439     H
H       0.8125   0.1739   0.1755     H
C       0.8128   0.5325   0.8806     C
O       0.8139   0.8885    0.891     O
H       0.8143   0.1816   0.4299     H
H       0.8156   0.0142   0.7099     H
O       0.8156   0.6589   0.6818     O
O       0.8168   0.3584   0.7804     O
O       0.8181   0.9265   0.2605     O
C       0.8188   0.2654   0.4901     C
H       0.8189   0.1784   0.9993     H
C       0.8189   0.7151   0.0915     C
O       0.8221   0.1942   0.0868     O
C       0.8222   0.4905   0.6501     C
O       0.8224   0.0201   0.4878     O
C       0.8236   0.2075   0.4733     C
C       0.8237    0.586   0.8711     C
H       0.8265   0.4499   0.8556     H
H       0.8266   0.2843   0.4184     H
H       0.8288   0.3422   0.5647     H
H       0.8311   0.9884   0.8762     H
H       0.8315   0.1273   0.0213     H
H       0.8321   0.5127   0.9714     H
C       0.8322   0.3034   0.5533     C
H       0.8322   0.3097   0.9627     H
H       0.8348   0.5212   0.6356     H
H       0.8356   0.0774   0.8655     H
N       0.8391   0.9872   0.4491     N
O       0.8412   0.2424   0.7307     O
O       0.8413   0.4517   0.4527     O
C       0.8417   0.1875   0.5199     C
H       0.8422   0.3288   0.0647     H
C       0.8429   0.4594   0.7346     C
O       0.8435   0.8071   0.2683     O
H       0.8452   0.1486   0.5085     H
H       0.8497   0.9691   0.7773     H
C       0.8504    0.005   0.7128     C
Pr     0.85048  0.40159  0.35083    Pr
C       0.8505   0.4958   0.8928     C
C       0.8506   0.2843   0.6002     C
Pr     0.85083  0.90159  0.35048    Pr
N       0.8526   0.4971   0.9533     N
H       0.8528   0.6864   0.5865     H
C       0.8537    0.776   0.2157     C
C       0.8546   0.2259   0.5838     C
H       0.8553    0.785    0.645     H
O       0.8554   0.7615   0.7467     O
H       0.8556   0.8265   0.4499     H
N       0.8576   0.9964   0.9653     N
O       0.8584   0.3168   0.2804     O
C       0.8587   0.2736   0.2261     C
C       0.8593   0.5082   0.7156     C
C       0.8605   0.7187   0.5732     C
H       0.8607   0.3109   0.6439     H
C       0.8612   0.7769   0.6076     C
H       0.8631   0.6085    0.871     H
H       0.8655   0.8356   0.0774     H
H        0.866   0.2127   0.6159     H
H       0.8694    0.035   0.6494     H
H       0.8704   0.4693   0.7779     H
C       0.8707   0.7076   0.5189     C
H        0.871   0.8631   0.6085     H
C       0.8711   0.8237    0.586     C
O       0.8714   0.9621   0.4728     O
C       0.8714   0.9783   0.7536     C
H       0.8715   0.6686   0.4968     H
C       0.8731   0.0104   0.9181     C
H       0.8741    0.654    0.038     H
N       0.8762   0.5112   0.4645     N
H       0.8762   0.8311   0.9884     H
H        0.878   0.0264   0.0073     H
C       0.8792   0.1058   0.9024     C
C         0.88   0.7542   0.4969     C
C       0.8806   0.8128   0.5325     C
C       0.8826   0.0176    0.677     C
C       0.8826    0.243   0.1266     C
H       0.8826    0.706    0.201     H
O       0.8836   0.7282   0.1133     O
H       0.8855   0.7463   0.4594     H
O       0.8885    0.891   0.8139     O
O       0.8888   0.4247   0.9265     O
O        0.889   0.4692   0.3089     O
N       0.8894   0.7437   0.2291     N
C       0.8895   0.4717   0.9793     C
H       0.8905   0.7198   0.0326     H
O        0.891   0.8139   0.8885     O
N       0.8913   0.2361   0.7547     N
C       0.8928   0.8505   0.4958     C
H       0.8946   0.1918   0.8985     H
H       0.8949   0.5521   0.7471     H
H       0.8955   0.5192      0.9     H
O       0.8966   0.1937   0.7129     O
C       0.8968   0.2866   0.1897     C
H       0.8985   0.8946   0.1918     H
H       0.8996   0.9901   0.9089     H
O       0.8999   0.5576    0.524     O
H          0.9   0.8955   0.5192     H
C       0.9004   0.7029   0.0636     C
Pr     0.90159  0.35048  0.85083    Pr
C       0.9024   0.8792   0.1058     C
O       0.9043   0.5207    0.432     O
H       0.9089   0.8996   0.9901     H
C       0.9099   0.0821   0.9383     C
H       0.9133   0.2421    0.059     H
C       0.9147   0.1742   0.9221     C
H       0.9153   0.4399    0.536     H
C       0.9181   0.8731   0.0104     C
H       0.9184   0.7843   0.3266     H
C       0.9221   0.9147   0.1742     C
C       0.9233   0.9657   0.7593     C
O       0.9247   0.3888   0.4265     O
C       0.9264   0.2651   0.1045     C
O       0.9265   0.2605   0.8181     O
O       0.9265   0.8888   0.4247     O
H       0.9299   0.6816   0.3143     H
C       0.9317   0.9385   0.8075     C
O        0.932   0.0207   0.4043     O
C       0.9343   0.0037    0.683     C
C       0.9368   0.5004   0.0503     C
C       0.9383   0.9099   0.0821     C
C       0.9385   0.8075   0.9317     C
H       0.9399   0.4153    0.036     H
C       0.9401   0.7859   0.2997     C
N       0.9491   0.4872   0.3391     N
H       0.9499   0.3265   0.3556     H
O       0.9517   0.3413   0.9527     O
O       0.9527   0.9517   0.3413     O
H       0.9531    0.141   0.6295     H
N       0.9533   0.8526   0.4971     N
C       0.9552   0.9784   0.7234     C
H       0.9558   0.0118   0.6588     H
C       0.9565   0.4594   0.0683     C
H       0.9574   0.5157   0.6491     H
O       0.9585   0.6196   0.0885     O
H       0.9594   0.2463   0.3855     H
C       0.9594   0.3429   0.2346     C
C       0.9594   0.4565   0.5683     C
C       0.9604   0.5649   0.0966     C
H       0.9614   0.6744   0.6519     H
O       0.9621   0.4728   0.8714     O
H       0.9627   0.8322   0.3097     H
H       0.9631   0.6923   0.1612     H
N       0.9645   0.0112   0.3762     N
N       0.9653   0.8576   0.9964     N
C       0.9657   0.7593   0.9233     C
H       0.9691   0.7773   0.8497     H
O       0.9692    0.389   0.8089     O
H       0.9693   0.3704   0.2779     H
H       0.9714   0.8321   0.5127     H
C       0.9717   0.3895   0.4793     C
O       0.9728   0.4621   0.3714     O
C       0.9733   0.7075   0.3236     C
C       0.9738   0.1223   0.9929     C
C       0.9759   0.9785   0.2147     C
C       0.9783   0.7536   0.8714     C
C       0.9784   0.7234   0.9552     C
C       0.9785   0.2147   0.9759     C
O       0.9791   0.7465   0.0091     O
C       0.9792   0.7271   0.1007     C
C       0.9793   0.8895   0.4717     C
H       0.9828   0.6721   0.0201     H
H       0.9837   0.0641    0.578     H
C       0.9848   0.5021   0.6362     C
C       0.9862   0.6889   0.1352     C
N       0.9872   0.4491   0.8391     N
O       0.9878   0.5201   0.3224     O
H       0.9884   0.0021   0.2599     H
H       0.9884   0.8762   0.8311     H
H         0.99   0.7829   0.6657     H
C       0.9901   0.7654   0.3188     C
H       0.9901   0.9089   0.8996     H
C       0.9905   0.3222   0.1501     C
C       0.9929   0.9738   0.1223     C
H       0.9934   0.1047   0.0167     H
C       0.9958   0.3505   0.3928     C
N       0.9964   0.9653   0.8576     N
H       0.9968   0.1686   0.3715     H
C       0.9969   0.2542     0.38     C
N       0.9971   0.3526   0.4533     N
C       0.9976   0.1502   0.6493     C
H       0.9993   0.8189   0.1784     H
