data_I
_chemical_name_common  '/home/zhangsd/repos/MofS-CGCNN/ML/data/WS24/clean_cifs/mil-101-so3h'
_cell_length_a 62.83990
_cell_length_b 62.83990
_cell_length_c 62.83990
_cell_angle_alpha 60.00000
_cell_angle_beta  60.00000
_cell_angle_gamma 60.00000
_space_group_name_H-M_alt      'P 1'


loop_
_space_group_symop_operation_xyz
  'x, y, z' 

loop_
_atom_site_label
_atom_site_fract_x
_atom_site_fract_y
_atom_site_fract_z
_atom_site_type_symbol
Cr    -8.326672684688674e-17 0.49999899999999997   0.7159    Cr
Cr    -8.326672684688674e-17 0.715899 0.28410100000000005    Cr
Cr    -5.551115123125783e-17 0.284099 0.5000000000000001    Cr
O     -5.551115123125783e-17  0.31623 0.5000000000000001     O
Cr    -2.7755575615628914e-17 0.284099   0.7159    Cr
Cr    -2.7755575615628914e-17 0.49999899999999997 0.28410100000000005    Cr
O     -2.7755575615628914e-17      0.5  0.31623     O
O          0.0 0.31622999999999996 0.6837690000000001     O
F     2.7755575615628914e-17 0.250459 0.5000000000000001     F
O     2.7755575615628914e-17 0.683769 0.5000000000000001     O
O     2.7755575615628914e-17  0.68377  0.31623     O
Cr    2.7755575615628914e-17   0.7159 0.5000000000000001    Cr
F     4.163336342344337e-17      0.5 0.250459     F
O     5.551115123125783e-17 0.5000009999999999 0.6837690000000001     O
O     0.0016890251975508613 0.8554988376373569 0.26116367580095073     O
H     0.002102238865308942 0.7953451573259386 0.4274661043114371     H
H     0.0021031185114354645 0.42746387217559456 0.27508741296588063     H
H     0.002103910097290773 0.2750842824020569 0.795344844983967     H
C     0.003479719999999964  0.46564 0.37392000000000003     C
C     0.0034798399999999285 0.4656389999999999 0.6569610000000001     C
C     0.003480229999999973 0.37391899999999995 0.46564000000000005     C
C     0.003480230000000084 0.6569589999999998 0.46564000000000005     C
C     0.0034804199999999286  0.65696 0.37392000000000003     C
C     0.0034805399999999487 0.373919 0.6569610000000001     C
C     0.0035193400000000097 0.44166099999999997 0.6586990000000001     C
C     0.003519719999999976 0.6586999999999998 0.4416590000000001     C
C     0.003520030000000035 0.39612099999999995 0.4416590000000001     C
C     0.0035202699999999365  0.44166 0.39611900000000005     C
C     0.0035207000000000432 0.6586999999999998 0.39611900000000005     C
C     0.0035210099999998523 0.396119 0.6586990000000001     C
O     0.005153990787858165 0.4425750177469909 0.7761134995676512     O
O     0.0051543789801792445 0.7761124658810428 0.27615328878428635     O
O     0.005156367913618426 0.2761486164332659 0.4425768591767265     O
H     0.005236247768132918 0.8708492953403251 0.24642760903766986     H
O     0.00643155025422934 0.38786037219140285 0.2780270114022249     O
O     0.0064319199733011145 0.278025327866389 0.8276812423069148     O
C     0.007439369999999987 0.8515799999999999 0.30198100000000005     C
C     0.007439599999999991 0.30198100000000005 0.8515790000000001     C
C     0.007440060000000012 0.338999 0.30198100000000005     C
C     0.007440260000000046  0.30198    0.339     C
C     0.007440679999999991 0.851579    0.339     C
C     0.007440720000000012 0.3390000000000001 0.8515790000000001     C
O     0.009155580892634907 0.7537402923219054 0.4607882111065514     O
O     0.009155904636466483 0.2763163536973733 0.7537393152255396     O
O     0.009156024219392836 0.46078604376114296 0.2763172114533337     O
Cr    0.01042929999999992 0.7941099999999999 0.8477300000000001    Cr
Cr    0.01043019999999989 0.8477289999999997 0.7941090000000001    Cr
Cr    0.010430799999999907 0.847729 0.8477300000000001    Cr
O     0.011388965413371477 0.5532842896879133 0.21525597356260295     O
O     0.01139097105131437 0.21525209454973898 0.720071034772971     O
O     0.011393580695096106 0.7200757476722877 0.5532835764073111     O
O     0.011395563910081147 0.23738075084627805 0.5346799033684604     O
O     0.011396317139734075 0.7165440555256002 0.23737803831831947     O
O     0.011397018292439193 0.5346800587661766 0.7165467745964228     O
H     0.01175092922711063 0.19611317283431012 0.5684127720827582     H
H     0.01175384036671176 0.7237218980253782 0.19611003160938395     H
H     0.011755077083529547 0.5684129228455367 0.7237238115356105     H
O     0.01242428014281012 0.7242086878869778 0.15735149412141416     O
O     0.012426817038842103 0.6060155655832757 0.7242109502231514     O
O     0.012530700000000061 0.8291559999999998 0.8291560000000001     O
H     0.015416491686956302 0.3914121745567877 0.2842238026628422     H
H     0.015416932552785312 0.2842217553649434 0.8089476814250782     H
H     0.015436300917920087 0.7170040552711416 0.17381655143175914     H
H     0.015439920778309801 0.5937416750347935 0.7170074566750416     H
F     0.016110099999999905 0.861849 0.7601890000000001     F
O     0.01693919999999996 0.5221799999999999 0.6318400000000001     O
O     0.016939500000000052 0.631839 0.5221800000000001     O
O     0.016939900000000008 0.32904000000000005 0.5221800000000001     O
O     0.016939900000000035 0.6318389999999999 0.329041     O
O     0.01694000000000004 0.5221789999999998 0.329041     O
O     0.016940299999999936 0.32903899999999997 0.6318400000000001     O
O     0.017424957451252526 0.1279225448670344 0.7354315696539458     O
H     0.018507699999999974 0.8459269999999999 0.35060800000000003     H
H     0.018508499999999983 0.35060899999999995 0.845925     H
H     0.01850919999999999 0.28495599999999993 0.35060800000000003     H
O     0.018509399999999995 0.12077099999999998 0.198869     O
O     0.018509600000000022  0.19887 0.12076900000000003     O
O     0.018510400000000017 0.19886999999999996 0.16185000000000002     O
O     0.018510599999999974  0.16185 0.198869     O
O     0.01851060000000001 0.12076899999999999 0.16185000000000002     O
O     0.018510999999999993  0.16185 0.12076900000000003     O
O     0.0185637468052387 0.14244579426626314 0.23332501792871718     O
O     0.018565935111897885 0.10566492435578922 0.14244329982266457     O
O     0.01877596191824965 0.7940109641640802 0.4263249812551997     O
O     0.018776404551053477 0.4263235461157151 0.2608884063896407     O
O     0.018777531420502425 0.2608857470352065 0.7940099611681714     O
C     0.02038989999999999  0.68671  0.14359     C
C     0.020390300000000028  0.64931 0.6867100000000002     C
C     0.02039039999999981 0.31275100000000006 0.8541090000000001     C
C     0.020390599999999814 0.6867100000000002 0.6493090000000001     C
C     0.02039059999999987 0.14359100000000002 0.6493090000000001     C
C     0.020390599999999898 0.6493090000000001  0.14359     C
C     0.02039059999999998 0.14358899999999997 0.6867100000000002     C
C     0.020390899999999948  0.31275 0.31274900000000005     C
C     0.020391099999999926 0.854109 0.31274900000000005     C
C     0.021239599999999997 0.33508000000000004   0.5603     C
C     0.021239700000000014   0.5603 0.3350810000000001     C
C     0.021239900000000006 0.33507999999999993  0.58338     C
C     0.021240200000000015  0.58338   0.5603     C
C     0.02124049999999987 0.583379 0.3350810000000001     C
C     0.02124059999999997 0.560299  0.58338     C
O     0.022754329773144205 0.3618552935104129 0.2503706614478849     O
O     0.02275445422757355 0.2503704356206018 0.8650200932820881     O
C     0.022969899999999967 0.10930900000000002 0.18386000000000002     C
C     0.022970399999999988 0.18385899999999997 0.10930900000000002     C
C     0.022970499999999998  0.18386 0.18386000000000002     C
O     0.02470960000000008 0.4691299999999998 0.650809     O
O     0.024710000000000037 0.650809 0.46913000000000005     O
O     0.024710499999999996 0.35534999999999994 0.650809     O
O     0.024710500000000052 0.3553489999999999 0.46913000000000005     O
O     0.02471060000000004 0.4691289999999999 0.35535000000000005     O
O     0.024710999999999886 0.650809 0.35535000000000005     O
S     0.025015364620223524 0.8412541211097209 0.27382786411679017     S
S     0.025083836823242195 0.35952722655613045 0.27330821558075585     S
S     0.025083859704747247 0.27330765061643036 0.8420806604003612     S
C     0.02553929999999996 0.39579999999999993 0.41840000000000005     C
C     0.025539900000000032 0.41839899999999997 0.39579900000000007     C
C     0.025540299999999988 0.6602599999999998 0.41840000000000005     C
C     0.02554059999999994 0.3957989999999999 0.6602600000000001     C
C     0.02554059999999994  0.66026 0.39579900000000007     C
C     0.025540800000000058 0.41839899999999985 0.6602600000000001     C
H     0.02641626620049356 0.10919306237267898 0.7416491499156235     H
O     0.027839099999999978 0.4653999999999999 0.281661     O
O     0.027839299999999984  0.28166 0.46540000000000004     O
O     0.027839899999999945 0.725099 0.281661     O
O     0.027840099999999895 0.7250990000000002 0.46540000000000004     O
O     0.02784049999999988 0.465399 0.7250990000000002     O
O     0.027840499999999935 0.2816589999999999 0.7250990000000002     O
O     0.02859467033733748 0.18945006197846628 0.5561545160635553     O
O     0.028597736644771374 0.7257989547871665 0.18944757150567165     O
O     0.028599264781013323 0.5561546331019802 0.7258002145511971     O
S     0.03024924125208156 0.7646424356483431 0.44590335025187267     S
S     0.03024938888283024 0.4459021920635587 0.25920523212130475     S
S     0.03024992824304451 0.25920429314513965 0.7646408551849608     S
O     0.030279000000000042 0.5147799999999999 0.2542400000000001     O
O     0.03027909999999992  0.25424   0.7007     O
O     0.0302795 0.700699 0.2542400000000001     O
O     0.030279699999999993 0.254239 0.5147800000000001     O
O     0.03028019999999987 0.7007000000000001 0.5147800000000001     O
O     0.03028019999999995 0.514779   0.7007     O
S     0.030284370218293333 0.44591515011858157 0.7646348601570269     S
S     0.030285189296649556 0.7646327879485738 0.2591626351754509     S
S     0.030287702613833595 0.259158525483413 0.4459152941059664     S
H     0.030638399999999982  0.14111 0.630632     H
H     0.030638600000000002  0.63063 0.14111100000000001     H
H     0.030639099999999975 0.6976179999999998 0.630632     H
O     0.03068780350997495 0.813492588171521 0.28201478689307224     O
O     0.03150572286394876 0.1350546744762035 0.08541195959984868     O
O     0.033836798091664066 0.1648211964135518 0.7037822084587144     O
C     0.03424089999999996 0.661839 0.6618390000000001     C
C     0.03424100000000002 0.6618389999999998  0.14208     C
C     0.03424109999999997 0.14208000000000004 0.6618390000000001     C
O     0.03459486605248541 0.4708895687988473 0.7481165548392588     O
O     0.034596494747514736 0.7481125121316178 0.2463977491812844     O
O     0.034599377762813965 0.24639053705265543 0.47088924544587457     O
S     0.03514678340163316 0.21509820047499636 0.5310792374572068     S
S     0.03514839008046365 0.7186747656053027 0.21509634272207545     S
S     0.03514955577830814 0.5310793390032327 0.7186763273220519     S
S     0.03518319679012011 0.5310338207105837 0.21509028002686156     S
S     0.03518472287118746 0.21508821091455282 0.7186921086802827     S
S     0.0351883420363473 0.7186942803451688 0.5310338693370829     S
Cr    0.03562920000000011  0.49019 0.6538300000000001    Cr
Cr    0.03563020000000003 0.6538289999999999 0.4901890000000001    Cr
Cr    0.03563029999999996 0.49018899999999993 0.3203500000000001    Cr
Cr    0.035630399999999965  0.65383 0.3203500000000001    Cr
Cr    0.03563059999999993 0.320349 0.4901890000000001    Cr
Cr    0.035630599999999985 0.320349 0.6538300000000001    Cr
O     0.03601819100549862 0.5043606067011852 0.23202051954736067     O
O     0.03601858346798725 0.2320188285141816 0.7276005020203823     O
O     0.036023626265847236 0.7276040800485873 0.5043602136057616     O
S     0.036729173767470466 0.7059040401751452 0.13957804091645845     S
S     0.03673060182029925 0.6177903309602742 0.7059051366122833     S
S     0.036739216460620505 0.13952356866785176 0.705924189446876     S
O     0.03780899999999987  0.78447 0.8607900000000002     O
O     0.037809199999999876 0.8169299999999999 0.8607900000000002     O
O     0.0378096 0.8607889999999999 0.7844690000000001     O
O     0.037809899999999896 0.860789 0.8169300000000002     O
O     0.03781080000000003 0.8169289999999999 0.7844690000000001     O
O     0.037810899999999925 0.7844690000000001 0.8169300000000002     O
O     0.03802929921352066 0.8829906608676634 0.8332878059810296     O
O     0.03872298396054363 0.12735113375054197 0.12581928399954287     O
H     0.03902829999999992 0.585493 0.330611     H
H     0.03902859999999994 0.544867 0.5854930000000002     H
H     0.0390286 0.330611 0.5854930000000002     H
O     0.03991214994529199 0.3445129705496369 0.5094994824789476     O
O     0.0402204854644479 0.43483847788113905 0.789269869500602     O
O     0.04022153645624378 0.7892671682876995 0.2356667665646283     O
O     0.04022630296526131 0.2356655120892292 0.43483565993559525     O
O     0.040869599999999895  0.66161 0.5135500000000001     O
O     0.040869699999999926  0.51355 0.28397000000000006     O
O     0.04086969999999998 0.661609 0.28397000000000006     O
O     0.0408697999999999  0.51355 0.661609     O
O     0.040869799999999956 0.283971 0.5135500000000001     O
O     0.04087000000000002  0.28397 0.661609     O
H     0.04219219999999996 0.41789299999999996 0.37847500000000006     H
H     0.04219220000000007 0.6614389999999999 0.37847500000000006     H
H     0.042192399999999936 0.41789199999999993 0.6614390000000001     H
O     0.04250683668577168 0.6192313911571901 0.5226697709144107     O
O     0.04250914641044126 0.5226679073612468 0.3155949354303008     O
O     0.042643384420585774 0.7235538730681854 0.11297966362426003     O
O     0.04264369203366272 0.6208276426204421 0.7235537983561273     O
O     0.042942785320627744 0.4575854917626297 0.23171260552688022     O
O     0.04294388036399291 0.7677580959291758 0.45758558629289386     O
O     0.04294414442465999 0.23171203092167586 0.767755216334479     O
H     0.04299263618667254 0.12804094324214052 0.2602353862644604     H
H     0.0429954056741816 0.0687302129035324 0.12803888485235332     H
O     0.04436611156983797 0.8543000310394825 0.25554101684521086     O
H     0.04477373958296338 0.3602064836664418 0.500091556866219     H
O     0.04500944637037435 0.6799395240862451 0.4307721984556503     O
O     0.04511896246495545 0.3442783627688959 0.6798338974796675     O
C     0.04526019999999999 0.183199 0.08834000000000002     C
C     0.045260400000000006 0.18320000000000003 0.18319900000000003     C
C     0.04526059999999997 0.08833920000000002 0.18319900000000003     C
C     0.045698799999999984 0.45239999999999997 0.7092400000000001     C
C     0.04569900000000002  0.70924 0.4524000000000001     C
C     0.045699100000000006 0.45239999999999997 0.29266100000000006     C
C     0.045699199999999884  0.29266 0.7092400000000001     C
C     0.04569960000000001 0.2926599999999999 0.4524000000000001     C
C     0.04569979999999997 0.7092390000000001 0.29266100000000006     C
C     0.04576960000000001 0.6773500000000001  0.26081     C
C     0.045769699999999885 0.260811 0.6773490000000001     C
C     0.04576970000000001  0.51607  0.26081     C
C     0.0457699 0.2608099999999999  0.51607     C
C     0.04577040000000002 0.6773499999999999  0.51607     C
C     0.04577129999999993 0.5160689999999999 0.6773490000000001     C
S     0.04693066309467585 0.13288537754196283 0.22230668872939433     S
S     0.04693284439097723 0.09787622043459651 0.13288425365201675     S
S     0.04696347293764927 0.13285989600736164 0.09790458223282442     S
C     0.047899699999999934 0.305299 0.30530000000000007     C
C     0.04789979999999988 0.305301 0.8414990000000001     C
C     0.047900199999999976 0.8414990000000001 0.30530000000000007     C
C     0.04791919999999994 0.7937399999999998 0.8646000000000001     C
C     0.04792009999999991 0.8646000000000001 0.7937390000000001     C
C     0.04792059999999998 0.7937390000000001 0.7937390000000001     C
O     0.047956928192155523 0.20729532995651168 0.5082574514271315     O
O     0.04795900657701928 0.7364888372210802 0.207293543962379     O
O     0.04796101240208814 0.5082575533925849 0.7364897837033244     O
H     0.04919711812028543 0.4461665505406666 0.7849331998349367     H
H     0.04919874464624578 0.784929082243004 0.21969949422306229     H
H     0.04920439793288131 0.21969738065541386 0.4461624185462207     H
O     0.0493495870221857 0.530597748694108 0.18493183389714618     O
O     0.049351714446036254 0.8308530548834294 0.8969128413504179     O
O     0.0493532513639478 0.18493002716596546 0.7351188473154568     O
O     0.04935353579767027 0.7228794312943008 0.8308542144013532     O
O     0.049360066144469694 0.7351166803889682 0.5305988196925798     O
O     0.049759357641569274 0.3529275521079208 0.27572318596522194     O
O     0.04975937084099902 0.2757225988183408 0.8215898074519663     O
H     0.05046495405314694 0.6238341816108124 0.5290242787308007     H
H     0.05046925097015306 0.5290213934397084 0.29667972733807113     H
H     0.050555399999999986 0.09164379999999998 0.213109     H
H     0.05055559999999998 0.213108 0.09164360000000002     H
H     0.05055569999999997 0.21310799999999996 0.144693     H
O     0.050779500000000005   0.4625 0.6830590000000001     O
O     0.05077989999999999 0.46250099999999994 0.30365900000000007     O
O     0.05077999999999985 0.30365999999999993 0.6830590000000001     O
O     0.05077999999999999 0.6830589999999999 0.4625000000000001     O
O     0.050780299999999945 0.303659 0.4625000000000001     O
O     0.05078089999999991 0.683059 0.30365900000000007     O
S     0.05111518974594792 0.32758680665174905 0.5341774584279176     S
S     0.051121700109386964 0.5341970131971251 0.3275508217564426     S
S     0.05112198475426705 0.5871336561083742 0.5341980930657938     S
O     0.05304997343200468 0.35258215584903807 0.40559910879003264     O
S     0.05375914086481884 0.662386470813968 0.41708069835760697     S
S     0.05380725312931223 0.366812190010742 0.6622898879843025     S
S     0.0539480978789352 0.3669222669082377 0.41722353568549436     S
C     0.054448700000000044  0.74871 0.42213000000000006     C
C     0.054449599999999876 0.4221289999999999 0.7487090000000001     C
C     0.054449599999999945 0.748709 0.27471000000000007     C
C     0.05444979999999988 0.27470999999999995 0.7487090000000001     C
C     0.05445009999999996 0.422129 0.27471000000000007     C
C     0.05445020000000003 0.274709 0.42213000000000006     C
O     0.05520575414392996 0.5137784792451228 0.3514688029908885     O
O     0.055208952800073596 0.5795496993326739 0.5137785792726929     O
O     0.05565088926519821 0.689005345518005 0.15327195770099075     O
O     0.05565342682240457 0.6020723743909576 0.6890076112210242     O
O     0.056458999999999926 0.287441 0.8307790000000002     O
O     0.05645919999999993  0.83078 0.28743900000000006     O
O     0.05645919999999996 0.287441 0.32532000000000005     O
O     0.056459499999999996 0.32532099999999997 0.28743900000000006     O
O     0.05645970000000006 0.8307789999999999 0.32532000000000005     O
O     0.056459800000000004 0.3253199999999999 0.8307790000000002     O
H     0.05732947611688093 0.5122898092151121 0.18619096216261347     H
H     0.05733301065363999 0.1861897183647307 0.7441874917224058     H
H     0.05734162025395162 0.7441845430018821 0.5122910293359078     H
O     0.05795893184854231 0.1223892496517201 0.24600266152627362     O
O     0.057961662189212275 0.07364800157196036 0.12238806980784443     O
C     0.05812959999999996 0.20086899999999996 0.16045100000000004     C
C     0.05812959999999999 0.16045099999999995 0.20086900000000002     C
C     0.058130099999999976 0.08054929999999998 0.16045100000000004     C
C     0.05813059999999996 0.20086900000000002 0.0805499     C
C     0.05813059999999999 0.160449 0.0805499     C
C     0.05813100000000003 0.08054939999999998 0.20086900000000002     C
C     0.05865939999999992 0.21686000000000002 0.5380600000000001     C
C     0.058659699999999954 0.5380589999999998 0.21686000000000002     C
C     0.05866009999999991  0.68642 0.5380600000000001     C
C     0.05866019999999991 0.21685999999999997 0.6864200000000001     C
C     0.05866019999999991 0.686419 0.21686000000000002     C
C     0.05866040000000003  0.53806 0.6864200000000001     C
O     0.0590245825182302 0.3551791326475119 0.4416785161671073     O
H     0.05948006646212045 0.9079292515104097 0.8292573346837968     H
H     0.05959825344940428 0.6964832774323826 0.38421042288413987     H
O     0.059632330118478516 0.8377961621926551 0.8493417129017574     O
O     0.059634100125025735 0.7532279863163047 0.8377957330744857     O
H     0.05973646725115611 0.35970805430882236 0.6963493612909918     H
O     0.05976773078242026 0.3004653939658152 0.5370014246055995     O
H     0.060910099999999856 0.784211 0.26341400000000004     H
H     0.060910899999999935 0.26341300000000006  0.78421     H
H     0.060910999999999965 0.39146499999999995 0.26341400000000004     H
H     0.060911200000000054 0.391465  0.78421     H
H     0.060911299999999974 0.263413 0.391465     H
H     0.06091170000000001 0.7842089999999999 0.391465     H
O     0.06143722578844954 0.11264708777817484 0.21056570004860584     O
O     0.061440113110657224 0.11534850287736007 0.11264665516242182     O
O     0.061583044491147765 0.11835929877378532 0.7023193327165144     O
C     0.06200929999999988  0.24017 0.6679100000000001     C
C     0.062009299999999934 0.5299099999999999 0.6679100000000001     C
C     0.062009699999999834  0.66791 0.5299100000000001     C
C     0.06200989999999998 0.6679090000000001 0.24017000000000002     C
C     0.06201059999999997  0.24017 0.5299100000000001     C
C     0.062010800000000005 0.529909 0.24017000000000002     C
C     0.06207959999999993 0.4281409999999999 0.7214200000000001     C
C     0.06207969999999999 0.28835999999999995 0.7214200000000001     C
C     0.06207969999999999  0.72142 0.28835900000000003     C
C     0.06208049999999998 0.721419 0.42813900000000005     C
C     0.06208059999999993  0.28836 0.42813900000000005     C
C     0.06208059999999996 0.42813999999999997 0.28835900000000003     C
C     0.06290939999999992 0.12986899999999993 0.6536100000000001     C
C     0.06290989999999995 0.6536090000000001 0.12986900000000004     C
C     0.06290989999999999 0.653609 0.6536100000000001     C
O     0.06461237301641337 0.6784918279922376 0.38571657655584807     O
O     0.06469826696235673 0.371212459441285 0.6783655849049173     O
C     0.06605919999999996 0.7636199999999999 0.39701900000000007     C
C     0.06605959999999989  0.39702 0.7636190000000002     C
C     0.06605989999999998   0.2733 0.39701900000000007     C
C     0.06606029999999995 0.39701900000000007 0.27329900000000007     C
C     0.06606109999999987 0.273299 0.7636190000000002     C
C     0.06606120000000003 0.7636189999999999 0.27329900000000007     C
S     0.06643703886648361 0.8729804580966505 0.8250121221345317     S
S     0.06646749144294828 0.8250182207269003 0.8729345620304805     S
S     0.06646915298033818 0.7355774405078543 0.8250183822881173     S
F     0.06695999999999999  0.48356 0.6214400000000001     F
F     0.0669601999999999  0.62144 0.328041     F
C     0.06750989999999996 0.8767909999999999 0.7778490000000001     C
C     0.06751059999999992 0.777849 0.7778490000000001     C
C     0.06751060000000003 0.777849 0.8767890000000002     C
H     0.06762999999999994 0.626369 0.26217300000000004     H
H     0.06763019999999989 0.26217200000000007 0.626369     H
H     0.06763039999999981 0.626369 0.5438270000000001     H
H     0.06763070000000002 0.543827 0.626369     H
H     0.06763079999999996 0.26217299999999993 0.5438270000000001     H
H     0.06763089999999997 0.543827 0.26217300000000004     H
O     0.06783584339331938 0.34014058790904556 0.5298472466503805     O
O     0.07090802684378428 0.5777887378148954 0.545482366688975     O
O     0.07090926209700736 0.545480090939237 0.3058270083612441     O
H     0.07152419999999987 0.875729 0.7418490000000001     H
H     0.07152449999999977 0.7418480000000001 0.8757290000000001     H
H     0.07152520000000001 0.8108959999999998 0.7418490000000001     H
C     0.07264909999999991 0.543671  0.64041     C
C     0.0726498999999999 0.24326999999999996 0.5436690000000001     C
C     0.07264990000000002 0.640409 0.5436690000000001     C
C     0.07264999999999996 0.5436699999999999 0.24326900000000004     C
C     0.07265029999999995  0.24327  0.64041     C
C     0.07265039999999987  0.64041 0.24326900000000004     C
O     0.07338274968956351 0.36850460731023615 0.6366401240033028     O
O     0.07338820726048442 0.6367698532246625 0.4214417002948329     O
C     0.07456940000000001 0.6792099999999999  0.55243     C
C     0.0745698000000001 0.552429  0.67921     C
C     0.07457020000000004  0.55243  0.19379     C
C     0.0745703  0.19379  0.67921     C
C     0.07457039999999998 0.1937899999999999  0.55243     C
C     0.07457069999999995 0.6792090000000001  0.19379     C
O     0.07495393849919069 0.10966741905646296 0.09063606362276806     O
O     0.07516112473064823 0.8929844601003893 0.8263224321606106     O
H     0.07587689999999991 0.555188 0.6939330000000001     H
H     0.07587739999999993 0.1750009999999999 0.6939330000000001     H
H     0.07587740000000004 0.693932 0.555188     H
H     0.07587779999999993 0.6939309999999999 0.175002     H
H     0.0758785 0.555187 0.175002     H
H     0.07587859999999996 0.17500100000000002 0.555188     H
O     0.07594909999999994  0.66517  0.63161     O
O     0.07594939999999997 0.6316100000000001 0.6651700000000002     O
O     0.07594959999999998 0.6316100000000001 0.12726900000000002     O
O     0.0759496 0.12726900000000002  0.63161     O
O     0.07595000000000005  0.66517 0.12726900000000002     O
O     0.0759503 0.12726899999999994 0.6651700000000002     O
O     0.07653217013929728 0.38045739322309724 0.3949953746762621     O
F     0.07798969999999994 0.23370999999999986 0.8437500000000002     F
F     0.07798970000000002 0.23370999999999995 0.34455100000000005     F
F     0.07799019999999998 0.8437490000000001 0.23371000000000003     F
C     0.07880999999999982  0.30271  0.70963     C
C     0.07881009999999994  0.70963 0.40885000000000005     C
C     0.0788102  0.40885  0.70963     C
C     0.07881030000000004 0.7096299999999999 0.30271000000000003     C
C     0.0788105 0.302709 0.40885000000000005     C
C     0.07881079999999994 0.408849 0.30271000000000003     C
C     0.07911949999999995 0.790279 0.8798390000000003     C
C     0.07911950000000006 0.879839 0.7902790000000001     C
C     0.07911959999999973 0.879839 0.7507600000000001     C
C     0.0791195999999999 0.750759 0.8798390000000003     C
C     0.07912029999999992 0.7902799999999999 0.7507600000000001     C
C     0.07912030000000009 0.7507600000000001 0.7902790000000001     C
H     0.08030888717444876 0.10010536560163522 0.10603871040683031     H
C     0.08054929999999998 0.05812969999999998 0.16045100000000004     C
C     0.08054969999999999 0.160449 0.05813060000000001     C
C     0.0805498 0.20086900000000002 0.05813060000000001     C
C     0.08054999999999994 0.16045099999999995 0.20086900000000002     C
C     0.08054999999999994 0.20086899999999996 0.16045100000000004     C
C     0.0805503 0.05812969999999999 0.20086900000000002     C
O     0.08143956809861985 0.8469285280315311 0.8375493745757581     O
H     0.08359099999999997 0.4132119999999999 0.6893060000000001     H
H     0.08359160000000002  0.31389 0.4132120000000001     H
H     0.08359169999999999 0.689305 0.4132120000000001     H
H     0.08359179999999991 0.413211 0.313891     H
H     0.08359239999999993 0.689305 0.313891     H
H     0.0835924999999999  0.31389 0.6893060000000001     H
C     0.08499899999999991  0.28536 0.37886100000000006     C
C     0.08499899999999995 0.7507800000000001 0.28536000000000006     C
C     0.08499939999999995 0.7507800000000001 0.37886100000000006     C
C     0.0849997 0.37885899999999995 0.28536000000000006     C
C     0.0849997999999999 0.2853589999999999 0.7507790000000001     C
C     0.08499999999999991  0.37886 0.7507790000000001     C
H     0.0854899446397713 0.37985382323409556 0.4043679521782518     H
O     0.08583190955009101 0.31431707438573203 0.8960614062237907     O
O     0.08583216441783743 0.20378751344649731 0.31431715138902394     O
O     0.0860595816126421 0.8757376255260121 0.3135699037484448     O
H     0.08646525430168428 0.9127862281803097 0.31507162901388513     H
C     0.08833969999999995 0.18320000000000003 0.18319900000000003     C
C     0.0883405 0.04526019999999999 0.18319900000000003     C
C     0.08834100000000002 0.183199 0.04525950000000001     C
C     0.08869919999999996 0.5630800000000001 0.19592100000000004     C
C     0.08869919999999998 0.19592000000000004   0.6523     C
C     0.08869949999999999 0.19591999999999998 0.5630790000000001     C
C     0.08869969999999998 0.652299 0.19592100000000004     C
C       0.0887  0.56308   0.6523     C
C     0.08870080000000002 0.6522999999999999 0.5630790000000001     C
O     0.08893880000000001   0.7896 0.34930000000000005     O
O     0.08893959999999995   0.3493 0.7895990000000002     O
O     0.08893970000000001 0.27215999999999996 0.34930000000000005     O
O     0.08893979999999985  0.27216 0.7895990000000002     O
O     0.08893989999999992   0.3493 0.27215900000000004     O
O     0.08894030000000004 0.789599 0.27215900000000004     O
C     0.08921980000000002   0.3022 0.38368100000000005     C
C     0.08921999999999994 0.302199   0.7249     C
C     0.08921999999999994 0.724899 0.38368100000000005     C
C     0.08922019999999994 0.383679   0.7249     C
C     0.08922069999999999 0.724899 0.302199     C
C     0.08922079999999996  0.38368 0.302199     C
C     0.08954909999999999 0.22100999999999998  0.55665     C
C     0.08954909999999999 0.22101099999999996 0.6327890000000002     C
C     0.08954919999999998  0.63279 0.22101000000000004     C
C     0.08954929999999998  0.55665 0.22101000000000004     C
C     0.08954950000000006 0.632789  0.55665     C
C     0.08954969999999995 0.5566499999999999 0.6327890000000002     C
H     0.09164210000000002 0.14469299999999996 0.213109     H
H     0.09164249999999997 0.0505548 0.213109     H
H     0.09164269999999995 0.21310799999999996 0.144693     H
H     0.0916429 0.144693 0.05055490000000001     H
H     0.09164290000000001 0.050554399999999985 0.144693     H
H     0.09164300000000002 0.213108 0.05055490000000001     H
Cr    0.09319909999999985 0.823719 0.32188000000000005    Cr
Cr    0.09319929999999993 0.3218790000000001  0.82372    Cr
Cr    0.09319929999999994 0.321881 0.26120000000000004    Cr
Cr    0.09319970000000005 0.26119999999999993  0.82372    Cr
Cr    0.0932002 0.261199 0.32188000000000005    Cr
Cr    0.09320050000000006 0.8237189999999999 0.26120000000000004    Cr
O     0.09337038983581497 0.8301209543742409 0.8646229083728995     O
O     0.09337249781536355 0.7118840237135047 0.8301205879024434     O
F     0.0963100999999999 0.09631029999999996 0.7002690000000001     F
F     0.09631010000000001  0.60711 0.7002690000000001     F
O     0.09668970000000005 0.25551099999999993 0.2915690000000001     O
O     0.09668989999999988 0.25551099999999993 0.8562290000000001     O
O     0.09669009999999995 0.2915699999999999 0.8562290000000001     O
O     0.09669030000000009 0.8562299999999999 0.2915690000000001     O
O     0.0966905 0.29156899999999997 0.25550900000000004     O
O     0.09669099999999999 0.856229 0.25550900000000004     O
C     0.09681940000000004 0.2834999999999999 0.35390000000000005     C
C     0.09681949999999996 0.765779 0.35390000000000005     C
C     0.0968198 0.353899   0.2835     C
C     0.09682030000000003 0.353899 0.7657790000000001     C
C     0.0968206000000001 0.765779   0.2835     C
C     0.09682100000000005 0.28350000000000003 0.7657790000000001     C
H     0.09947029607200986 0.8376010733459581 0.8456402657804749     H
H     0.09947255766304536 0.7172871592695527 0.8376000837700089     H
H     0.10035599999999989 0.368048 0.717124     H
H     0.1003559999999999 0.717125 0.36804800000000004     H
H     0.10035599999999996 0.717125  0.31447     H
H     0.10035600000000006 0.31446999999999997 0.717124     H
H     0.10035699999999996 0.368048  0.31447     H
H     0.10035699999999999 0.314471 0.36804800000000004     H
C     0.10129999999999995 0.774699 0.8885590000000001     C
C     0.10130099999999992 0.8885589999999999 0.7746990000000001     C
C     0.10130099999999997 0.7354399999999999 0.8885590000000001     C
C     0.10130100000000003 0.735439 0.7746990000000001     C
C     0.10130100000000003 0.7746999999999997 0.7354390000000001     C
C     0.10130100000000003 0.8885609999999997 0.7354390000000001     C
C     0.10163999999999994  0.86508 0.26664000000000004     C
C     0.10163999999999995  0.26664 0.8650800000000001     C
C     0.101641 0.266639 0.26664000000000004     C
H     0.10240100000000002 0.22310399999999997 0.6131140000000002     H
H     0.10240199999999988 0.6131150000000001 0.5613800000000001     H
H     0.10240200000000002 0.6131139999999999 0.22310300000000002     H
H     0.10240299999999997 0.223103 0.5613800000000001     H
H     0.102403 0.5613799999999999 0.22310300000000002     H
H     0.10240300000000008  0.56138 0.6131140000000002     H
O     0.10383899999999999 0.15031999999999998 0.6635400000000001     O
O     0.10383899999999999  0.66354 0.5823000000000002     O
O     0.10383999999999993 0.582301 0.15032000000000004     O
O     0.10383999999999996 0.15032099999999995 0.5823000000000002     O
O     0.10383999999999999 0.6635390000000001 0.15032000000000004     O
O     0.10384000000000002 0.5822990000000001 0.6635400000000001     O
O     0.10404999999999993  0.29603 0.29603100000000004     O
O     0.10404999999999996 0.803889 0.29603100000000004     O
O     0.10405000000000003 0.296029 0.803889     O
C     0.10411999999999996 0.25297900000000006 0.252979     C
C     0.10411999999999996  0.88992 0.252979     C
C     0.10411999999999999 0.252979 0.8899200000000002     C
O     0.10493453046349448 0.9070373236053949 0.30499512529071565     O
C     0.10731899999999989 0.17207999999999996 0.6465000000000001     C
C     0.10731899999999991   0.6465 0.5740990000000001     C
C     0.107319   0.5741 0.6465000000000001     C
C      0.10732 0.17207999999999998 0.5740990000000001     C
C     0.10732000000000003 0.574099  0.17208     C
C     0.10732000000000003 0.6464990000000002  0.17208     C
O     0.10916275407468426 0.22223117257451008 0.06865897736833124     O
O     0.10916299928195486 0.06865701750370981 0.09994613198526743     O
H     0.1091916611922136 0.6227414274078983 0.7416481957619137     H
H     0.10919404853932108 0.741648671753209 0.026417498628882465     H
C     0.10930999999999998 0.18385899999999997 0.0229708     C
C     0.10930999999999999 0.022969399999999966 0.18386000000000002     C
C     0.10931100000000002  0.18386 0.18386000000000002     C
S     0.10989603464698666 0.88241003492169 0.2981576753269564     S
S     0.10994385438317056 0.29814353158136336 0.8823788931893455     S
S     0.10994410267263367 0.20953161806272874 0.2981434589579124     S
C     0.11007899999999987  0.74702 0.8958800000000002     C
C     0.11007899999999993  0.74702 0.7470200000000001     C
C     0.11007999999999979  0.89588 0.7470200000000001     C
H     0.11046699999999993 0.2845230000000001 0.21613200000000002     H
H     0.1104679999999999 0.21613199999999994 0.8888770000000001     H
H     0.11046800000000004 0.8888770000000001 0.21613200000000002     H
H     0.11112199999999983 0.889532 0.7838670000000001     H
H     0.11112199999999989 0.7154769999999999 0.889532     H
H     0.11112199999999989 0.7838669999999999 0.889532     H
H     0.11112199999999994 0.7154759999999999 0.7838670000000001     H
H     0.11112200000000005 0.7838679999999999 0.7154770000000001     H
H     0.11112200000000005 0.8895330000000002 0.7154770000000001     H
C     0.11143899999999997 0.22529899999999997 0.2645600000000001     C
C     0.11143899999999997 0.2645600000000001   0.2253     C
C     0.111439 0.8986999999999999 0.2645600000000001     C
C     0.11143900000000001 0.26455999999999996 0.8987000000000002     C
C     0.11143999999999998 0.22529899999999986 0.8987000000000002     C
C     0.11144000000000008   0.8987   0.2253     C
O     0.11297564663800924 0.04264369845119115 0.7235539193038335     O
Cr    0.11381899999999995 0.11381999999999998 0.6087600000000001    Cr
Cr    0.11381899999999998 0.6087599999999999 0.11381900000000002    Cr
Cr    0.11381900000000003 0.663601 0.11381900000000002    Cr
Cr    0.11381999999999992 0.11382000000000003 0.663599    Cr
Cr    0.11381999999999998 0.663599 0.6087600000000001    Cr
Cr    0.11382000000000003  0.60876 0.663599    Cr
O     0.11525899999999989 0.7552000000000001 0.33722100000000005     O
O     0.115259 0.2923200000000001 0.755199     O
O     0.11525900000000003  0.29232 0.33722100000000005     O
O     0.11525900000000004 0.755201  0.29232     O
O     0.11526000000000002  0.33722  0.29232     O
O     0.11526000000000008 0.3372199999999999 0.755199     O
O     0.11620936668403153 0.05557662705754751 0.20779444872483577     O
O     0.11685028823122957 0.20407507323827706 0.34727265107332317     O
O     0.11685153379299007 0.3472739370134001 0.8318011514776888     O
O     0.11685231577471185 0.8318066595524793 0.20406496982088032     O
O     0.11835975084229336 0.6177380378292953 0.702317835358365     O
O     0.11836108275866143 0.7023181915402323 0.061583428902855335     O
O     0.11945588255756118 0.3036954434983952 0.8543118417919335     O
O     0.11945631027731063 0.2225346518785871 0.3036952649728858     O
C     0.12015899999999999 0.24924099999999993 0.20971900000000002     C
C     0.12015999999999993 0.920879 0.20971900000000002     C
C     0.12015999999999999 0.20971899999999996 0.24923900000000002     C
C     0.12015999999999999 0.2097199999999999 0.920879     C
C     0.12015999999999999 0.24924000000000002 0.920879     C
C     0.12016000000000002 0.920879 0.24923900000000002     C
O     0.12076899999999997 0.018510300000000007 0.198869     O
O     0.12076899999999999 0.198871 0.018509600000000005     O
O     0.12076999999999996 0.19886999999999996 0.16185000000000002     O
O     0.12077099999999998  0.16185 0.198869     O
O     0.12077099999999999 0.018509199999999983 0.16185000000000002     O
O     0.12077100000000004 0.16185000000000002 0.018509600000000005     O
O     0.12130371749512445 0.3145696274386394 0.20851935691499038     O
O     0.12130593142734901 0.8556057297847302 0.31456236010126265     O
O     0.12130682680778476 0.20852940208697424 0.8556045191538776     O
H     0.12234221616616082 0.19627317811396 0.043715931565221196     H
H     0.12234225995857606 0.04371331056097642 0.13766784447642563     H
C     0.12320899999999996 0.22215099999999993 0.9324900000000002     C
C     0.12320999999999994 0.22215000000000001 0.22215000000000001     C
C     0.12320999999999997 0.932489 0.22215000000000001     C
O     0.12366999999999997  0.62633 0.6263300000000002     O
O     0.12367000000000003 0.12367099999999995 0.6263300000000002     O
O     0.12367100000000003  0.62633 0.12366900000000002     O
O     0.12425045973724977 0.04850064751094488 0.2474533960047237     O
H     0.12426999999999992 0.18910300000000002 0.25815000000000005     H
H     0.12426999999999994 0.258151 0.18910300000000002     H
H     0.12426999999999999 0.9284750000000002 0.18910300000000002     H
H     0.12427099999999996 0.1891029999999999 0.9284750000000002     H
H     0.12427099999999996 0.25814999999999994 0.9284750000000002     H
H     0.12427199999999998 0.928475 0.25815000000000005     H
O     0.1251189999999999 0.578659 0.17238100000000003     O
O     0.12511900000000006  0.62384 0.17238100000000003     O
O     0.12511999999999995 0.17238000000000003 0.623839     O
O      0.12512 0.17237900000000006 0.5786600000000001     O
O      0.12512 0.5786610000000001 0.623839     O
O      0.12512 0.623839 0.5786600000000001     O
O     0.12547447773380477 0.17951944958322574 0.8350836113715278     O
O     0.12547690530281613 0.8350828967140469 0.35992430675018905     O
O     0.1254805372263051 0.35992952070397316 0.1795103418116259     O
O     0.12637899999999985 0.2322599999999999 0.8160590000000001     O
O     0.12637899999999994  0.81606 0.23225900000000002     O
O     0.12637999999999994 0.23225899999999994 0.32530000000000003     O
O     0.12637999999999994 0.3252999999999999 0.23225900000000002     O
O      0.12638  0.81606 0.32530000000000003     O
O     0.1263809999999999 0.3252999999999999 0.8160590000000001     O
O     0.12726899999999997 0.07595039999999997  0.63161     O
O     0.127269  0.63161 0.07595030000000001     O
O     0.1272699999999999 0.6316100000000001 0.6651700000000002     O
O     0.12726999999999994  0.66517  0.63161     O
O     0.12726999999999997 0.07595069999999995 0.6651700000000002     O
O     0.12727000000000002 0.665169 0.07595030000000001     O
O     0.12792108709774902 0.6192207574235817 0.7354313317816925     O
O     0.12792339952769072 0.7354311069015582 0.01742564749971043     O
O     0.1294943852613997 0.830582223898503 0.6776820099624375     O
C     0.12986899999999998 0.06290969999999993 0.6536100000000001     C
C     0.12986900000000007  0.65361 0.06290960000000001     C
C     0.12986999999999996 0.653609 0.6536100000000001     C
O     0.13209032674897347 0.18613561070161672 0.31133866327290854     O
O     0.1320915881333497 0.3113405377656833 0.8704347412134661     O
O     0.1320965365906779 0.8704370387049459 0.18612617958940467     O
O     0.1325411446640261 0.8060466150743288 0.8711950739226305     O
O     0.1325419853260924 0.6902156441260806 0.8060446575021829     O
H     0.13264785808699575 0.15852720433279038 0.37008117847956895     H
H     0.13265096730603065 0.37008234606624224 0.8387408990933608     H
H     0.13265685117843282 0.8387439348821137 0.15851743073225516     H
O     0.13308540050722661 0.29667226029048205 0.8889764237962807     O
O     0.13308559825464322 0.1812638235787765 0.29667203669943537     O
S     0.13322253664889497 0.22198833762696088 0.04636813676678223     S
S     0.13322327315052718 0.046366745254309 0.09841956463324074     S
S     0.13324483360403616 0.04633726037465524 0.22202390154139331     S
Cr    0.133319 0.2993189999999999 0.29932000000000003    Cr
Cr    0.13331999999999997 0.768039 0.29932000000000003    Cr
Cr    0.13332000000000016 0.29932100000000006 0.768039    Cr
C     0.1349199999999999 0.898361 0.733359     C
C      0.13492  0.73336 0.733359     C
C     0.1349209999999999 0.7333589999999999 0.8983590000000001     C
C     0.13539999999999996 0.20625999999999997 0.20626000000000003     C
C     0.13540000000000002 0.20625999999999994 0.9520790000000001     C
C     0.13540000000000005 0.9520800000000001 0.20626000000000003     C
O     0.1354350119342692 0.8642392137471892 0.29965106669949476     O
H     0.13551512331818308 0.7851351968777786 0.7000115459160602     H
O     0.13576491137972785 0.20447033528059988 0.03200631391836873     O
O     0.1357654463896372 0.03200424267686968 0.12775714713744063     O
S     0.13588321823770438 0.18695464273374057 0.3318086052932991     S
S     0.1358847204670557 0.3318098154292246 0.845352399309984     S
S     0.1358879270882088 0.84535513388941 0.18694657660642022     S
S     0.13589095176666632 0.1869609648043576 0.8453879520572204     S
S     0.13589186375063406 0.8453879543302893 0.33176190786930265     S
S     0.13589256718768988 0.33176709322060605 0.18695299931748735     S
F     0.13814900000000002  0.23981 0.13815000000000002     F
O     0.1386176991242848 0.24525782495558443 0.025641773555694462     O
O     0.13861949651933947 0.025640734962399277 0.09048017291664147     O
O     0.13920899999999986 0.21552999999999994 0.9621900000000002     O
O     0.13920899999999992 0.1830699999999999 0.9621900000000002     O
O     0.13920899999999992 0.9621890000000001 0.18307100000000004     O
O     0.13920899999999994  0.21553 0.18307100000000004     O
O     0.13920999999999992 0.9621890000000001 0.21552900000000003     O
O     0.13920999999999994 0.18307000000000004 0.21552900000000003     O
S     0.13952334294853025 0.6178126997737361 0.7059238227596331     S
S     0.13952480269654158 0.7059233670221065 0.03673918059898159     S
S     0.1395744930016604 0.036730237813246774 0.7059048898501193     S
H     0.14089685802375806 0.1667729781587674 0.8828051896594915     H
H     0.14089776546567484 0.3095342693147212 0.1667629948727495     H
H     0.1408983065802704 0.8828049614395059 0.3095268683860098     H
H     0.1411099999999999 0.6976179999999998 0.630632     H
H     0.14111199999999996 0.030637899999999996 0.630632     H
H     0.14111199999999996 0.630631 0.030638200000000004     H
O     0.1411342487844547 0.15696373475391848 0.3527585609029931     O
O     0.14113710147373298 0.352759787004738 0.8491408881289153     O
O     0.14114369259070753 0.8491426001586729 0.15695503690306828     O
C     0.14207999999999993 0.6618400000000001 0.034239900000000004     C
C     0.14207999999999998 0.03424109999999997 0.6618390000000001     C
C     0.14208000000000004 0.661839 0.6618390000000001     C
C     0.14358899999999986 0.6867100000000002 0.6493090000000001     C
C     0.1435889999999999 0.020390399999999975 0.6867100000000002     C
C     0.14358900000000002  0.64931 0.6867100000000002     C
C     0.14358900000000002 0.6867099999999999 0.020390400000000003     C
C     0.14358999999999994 0.020389799999999986 0.6493090000000001     C
C     0.14358999999999994 0.649309 0.020390400000000003     C
O     0.14376899999999979 0.7084300000000001 0.7444900000000001     O
O     0.14376899999999984 0.7444900000000001 0.7084300000000001     O
O     0.14377099999999995 0.903309 0.7444900000000001     O
O     0.14377100000000007 0.9033100000000001 0.7084300000000001     O
O     0.1437710000000001 0.708429 0.9033090000000003     O
O     0.1437710000000001 0.744489 0.9033090000000003     O
H     0.144693 0.213108 0.09164360000000002     H
H     0.14469300000000002 0.09164379999999998 0.213109     H
H     0.144694 0.0916433 0.05055490000000001     H
O     0.1448913530068211 0.1607184784880249 0.8692072177035999     O
O     0.1448936628315095 0.8692064234809544 0.3251842497378349     O
O     0.1448950160580385 0.3251902825392789 0.16070968236517066     O
O     0.1449780067429154 0.5534630779648521 0.10340191007846383     O
O     0.14497845286491526 0.6981580357394096 0.5534640453070723     O
O     0.1449795555898896 0.10339871926440833 0.6981577735753914     O
O     0.14537054958424367 0.07566906339494939 0.5834619818109825     O
O     0.14537062992644578 0.583457977179393 0.6954998278116613     O
O     0.14537074794578567 0.6954990350651514 0.07567104221557519     O
Cr    0.14578999999999998 0.6042099999999999 0.604209    Cr
Cr    0.14579000000000003 0.14578999999999998 0.604209    Cr
Cr    0.14579099999999995 0.6042089999999999 0.14579000000000003    Cr
C     0.14588899999999988 0.687249 0.9796100000000001     C
C     0.14588899999999994 0.9796090000000001 0.6872500000000001     C
C     0.14589000000000002  0.68725 0.6872500000000001     C
H     0.14828699702314735 0.29679335970214643 0.8731237901162041     H
H     0.14828727908858225 0.1817937205667578 0.2967930139969661     H
C     0.14830899999999997 0.23696900000000004  0.80369     C
C     0.14830899999999997  0.80369 0.23697000000000001     C
C      0.14831 0.23697000000000001  0.31103     C
C      0.14831 0.311029 0.23697000000000001     C
C      0.14831 0.31102900000000006  0.80369     C
C     0.1483100000000001 0.803689  0.31103     C
C     0.1484189999999998 0.9925599999999999 0.660999     C
C     0.14841899999999986 0.6609999999999998 0.9925590000000002     C
C     0.14841999999999994 0.698019 0.9925590000000002     C
C      0.14842 0.6609989999999999 0.6980200000000001     C
C      0.14842 0.698019 0.660999     C
C      0.14842 0.9925589999999999 0.6980200000000001     C
O     0.1484844817533412 0.015014466126859 0.22572992841308379     O
H     0.15027331971229158 0.006402377966768499 0.24296261814237077     H
O     0.15031900000000006 0.10384000000000002 0.6635400000000001     O
O     0.15031900000000006  0.66354 0.5823000000000002     O
O     0.15031999999999998 0.5822990000000001 0.6635400000000001     O
O      0.15032   0.5823  0.10384     O
O     0.15032000000000004 0.10383999999999996 0.5823000000000002     O
O     0.15032000000000006 0.663539  0.10384     O
O     0.15044899999999994 0.7848110000000001 0.259089     O
O     0.15044900000000005 0.7848100000000001 0.30565100000000006     O
O     0.15044999999999997  0.25909 0.30565100000000006     O
O     0.15045000000000003  0.25909 0.7848090000000001     O
O     0.15045000000000003 0.3056489999999999 0.7848090000000001     O
O     0.150451 0.3056499999999999 0.259089     O
Cr    0.15226999999999985 0.1522699999999999 0.9895700000000001    Cr
Cr    0.15226999999999996 0.15226999999999996 0.20589000000000002    Cr
Cr    0.15226999999999996 0.205889 0.15227100000000002    Cr
Cr    0.15227000000000002 0.20588899999999993 0.9895700000000001    Cr
Cr    0.15227000000000007 0.9895690000000001 0.20589000000000002    Cr
Cr    0.15227099999999988 0.989569 0.15227100000000002    Cr
O     0.1522810589820166 0.7828748759675425 0.6860030760504443     O
O     0.15326760045909185 0.05565267028885121 0.6890070696698464     O
O     0.15329394983540912 0.8350321212814504 0.8666985319121857     O
O     0.15329409181692855 0.6449735239501146 0.8350302636649102     O
H     0.15407299999999982 0.9814909999999998 0.7150440000000001     H
H     0.15407299999999988 0.649391 0.7150440000000001     H
H     0.15407299999999996 0.715044 0.649391     H
H     0.15407399999999993 0.6493899999999999 0.9814910000000002     H
H     0.15407399999999993 0.981491 0.649391     H
H     0.154074 0.7150429999999999 0.9814910000000002     H
S     0.15494656639177204 0.8121592501719062 0.6684133502945822     S
S     0.1549804732431015 0.8121615741097348 0.8644871270012063     S
S     0.15498104660211848 0.668369157195702 0.8121600514792667     S
O     0.1550302351048182 0.09543947130778971 0.5339573437987261     O
O     0.1550328221430946 0.7155705258844519 0.09544247712941054     O
O     0.15503353106950013 0.533952857074071 0.7155714316572653     O
O     0.15561344060001553 0.5785138700473411 0.05425011556525087     O
O     0.15561563235906387 0.7116203387196579 0.5785161865105218     O
O     0.15561648270978934 0.0542470214085462 0.7116208654109827     O
F     0.15624900000000005 0.9220089999999999  0.65545     F
F     0.15624999999999994 0.655449 0.766289     F
O     0.15734742914664415 0.012426000205973925 0.7242103187786382     O
C     0.1584999999999998 0.694699 0.9521000000000001     C
C     0.15850000000000003 0.6947000000000001 0.6946990000000001     C
C     0.15850099999999995 0.952099 0.6946990000000001     C
C     0.16044999999999998 0.20086900000000002 0.05813060000000001     C
C      0.16045 0.05813020000000001 0.0805499     C
C     0.16045000000000004 0.05812969999999999 0.20086900000000002     C
C     0.16045000000000004 0.0805497 0.05813060000000001     C
C     0.160451 0.08054939999999998 0.20086900000000002     C
C     0.16045100000000007 0.20086900000000002 0.0805499     C
O      0.16185 0.01850949999999999 0.12076900000000003     O
O      0.16185 0.018510300000000007 0.198869     O
O      0.16185 0.12077099999999998 0.198869     O
O      0.16185  0.19887 0.12076900000000003     O
O      0.16185 0.198871 0.018509600000000005     O
O     0.16185000000000002 0.12077000000000002 0.018509600000000005     O
O     0.1622025964718709 0.9403672988734487 0.1506558713689256     O
O     0.16220303871442993 0.15065772937948915 0.24677131386422813     O
O     0.16220397369045392 0.24677337957709583 0.9403631886287199     O
S     0.16235902326403587 0.5567786274646767 0.07645729980285686     S
S     0.1623594853868032 0.07641653153861003 0.556822032274608     S
S     0.16236023770280356 0.704404601263616 0.5567800913453262     S
S     0.16236074894726504 0.7044010689862402 0.07641877525456615     S
S     0.16236108334253066 0.5568183967272069 0.7044015903359986     S
S     0.16236124212871067 0.07645430716365065 0.7044046487633446     S
H     0.16239797130692457 0.9005291333509226 0.15435747048412563     H
H     0.16239802916233376 0.15435904548335344 0.28271287110863336     H
H     0.16240197958760788 0.28271301188847464 0.9005236567833302     H
O     0.1624488910519166 0.2659232109271302 0.15306678726000728     O
O     0.16245009031643903 0.15306904654743164 0.9185552966192186     O
O     0.16245123285239685 0.9185558695414541 0.2659226179577696     O
H     0.1633269087995031 0.5180233102844812 0.08792776225949482     H
H     0.16332736355196983 0.7307235598889943 0.5180255211790844     H
H     0.16332857332128586 0.08792334566543752 0.7307230553862631     H
H     0.16405333266087715 0.03658894938676868 0.5735576444883125     H
H     0.16405357048574135 0.7258011846547396 0.03659163022215971     H
H     0.16405418974722966 0.5735530577314905 0.7258010941792584     H
H     0.16418099999999985 0.8517249999999998 0.6731880000000001     H
H     0.16418199999999988 0.8517240000000001 0.8109060000000001     H
H     0.16418199999999994 0.673187 0.8517230000000001     H
O     0.16482089622102908 0.5975593859976008 0.7037826545335362     O
O     0.16482287706450544 0.7037809775246989 0.033836016090413285     O
O     0.16670961190440514 0.11700866731739717 0.9619669352501748     O
O     0.16671091884078348 0.9619678020301362 0.25431061064285465     O
O     0.16671173400825479 0.25431061653478826 0.11700602735649215     O
C     0.16732899999999995 0.189851  0.32003     C
C     0.16732999999999992 0.189851 0.8227890000000001     C
C     0.16732999999999992  0.32003 0.8227890000000001     C
C     0.16732999999999998 0.32003099999999995 0.189849     C
C     0.16732999999999998 0.822789  0.32003     C
C     0.16733099999999992 0.822789 0.189849     C
F     0.16762899999999997  0.58237 0.16763100000000003     F
O     0.16789292302339162 0.8126680708715337 0.641626008419895     O
O     0.1691449728316558 0.27712244376608774 0.950643556704666     O
O     0.16914561365913117 0.1030866679552174 0.2771188240062733     O
O     0.16914624495819433 0.9506474901601173 0.10308468966502637     O
O     0.169219 0.674679 0.9435400000000003     O
O     0.16921900000000004 0.6746799999999998 0.7125590000000002     O
O     0.16921900000000006 0.7125599999999999 0.9435400000000003     O
O     0.1692190000000001 0.7125599999999999 0.6746790000000001     O
O     0.16922000000000006 0.9435399999999998 0.7125590000000002     O
O     0.16922000000000018 0.943539 0.6746790000000001     O
O     0.16984351987081892 0.5303218616426855 0.07103805981052648     O
O     0.16984459002120933 0.7287968161972087 0.5303242371382864     O
O     0.16984569468704963 0.07103401648648516 0.7287966220576129     O
O     0.16987796892338652 0.13537639133733592 0.2881155494020964     O
O     0.16987825322610414 0.906628915420849 0.1353748382244227     O
O     0.1698810469393851 0.2881163070700039 0.9066240135169711     O
O     0.1701741500092777 0.0476595278480392 0.5556105864445838     O
O     0.17017523132700638 0.7265555785078032 0.04766232653863765     O
O     0.1701760338897219 0.5556062546595086 0.7265555465373927     O
H     0.17074409913867922 0.9405186074100113 0.2966682494555005     H
H     0.1707443437458991 0.2966685208930914 0.09206509147145278     H
H     0.17074543404198617 0.09206742308340543 0.94051575288088     H
C     0.17078899999999986 0.3104089999999999 0.8043100000000001     C
C     0.17078899999999986 0.8043090000000002 0.21449100000000001     C
C     0.17078899999999989 0.804309 0.3104100000000001     C
C     0.1707889999999999 0.21448999999999996 0.8043100000000001     C
C     0.17078899999999997 0.310409 0.21449100000000001     C
C     0.170789  0.21449 0.3104100000000001     C
O     0.17084299999999997 0.17084300000000002 0.17084300000000002     O
O     0.17084299999999997 0.17084399999999994 0.9874690000000002     O
O     0.17084300000000002  0.98747 0.17084300000000002     O
C     0.17207999999999984 0.10731999999999997 0.6465000000000001     C
C     0.17207999999999984   0.5741 0.6465000000000001     C
C     0.172081   0.6465 0.5740990000000001     C
C     0.17208100000000004   0.5741 0.10731900000000001     C
C     0.17208100000000004 0.6464989999999999 0.10731900000000001     C
C     0.17208100000000007  0.10732 0.5740990000000001     C
O     0.1723459344237115 0.7866254025525544 0.8825949013261923     O
O     0.1723473690124595 0.6584325309042455 0.7866235840664505     O
O     0.17237999999999987 0.623839 0.5786600000000001     O
O     0.17237999999999998 0.5786610000000001 0.623839     O
O     0.17238000000000003 0.12511999999999995 0.623839     O
O     0.17238000000000003 0.623841 0.12511900000000004     O
O     0.1723809999999999 0.578659 0.12511900000000004     O
O     0.17238100000000006 0.12511999999999995 0.5786600000000001     O
O     0.17367851239103776 0.2944708878687441 0.10700988755121991     O
O     0.17367940169815066 0.9248369788426056 0.29447035239304065     O
O     0.1736804911089324 0.1070120655821798 0.9248345641125526     O
H     0.1738119766574565 0.015438708757435027 0.717006502467043     H
S     0.1749807234351967 0.12706478918669795 0.2644215261819227     S
S     0.17498083713893325 0.9335319198325592 0.12706311615154972     S
S     0.17498157781014506 0.2644236277923101 0.9335283183672205     S
S     0.1749871770224805 0.2644333080758745 0.12701561912925463     S
S     0.17498726553075244 0.12701793057294913 0.9335591040098538     S
S     0.17498801573506162 0.9335599997053337 0.26443282819004843     S
Cr    0.17627899999999985   0.7388 0.6781190000000001    Cr
Cr    0.17627899999999994  0.67812 0.7387990000000001    Cr
Cr    0.17627999999999988 0.678119 0.9068000000000003    Cr
Cr    0.1762800000000001 0.9067999999999999 0.6781190000000001    Cr
Cr    0.1762809999999999 0.7387989999999999 0.9068000000000003    Cr
Cr    0.176281 0.906799 0.7387990000000001    Cr
C     0.1772089999999999  0.67997 0.8101490000000001     C
C     0.17720899999999995 0.8101499999999999 0.6799700000000001     C
C     0.177209 0.810149 0.8326700000000001     C
C     0.17720999999999998 0.8326689999999999 0.6799700000000001     C
C     0.17721000000000003  0.67997 0.8326700000000001     C
C     0.1772100000000001 0.8326689999999999 0.8101490000000001     C
H     0.1795766658107794 0.7933766604829011 0.8875847050057938     H
H     0.1795780503375518 0.6394607188970617 0.7933746470533336     H
O     0.18306899999999987 0.9621900000000001 0.139211     O
O     0.18306899999999998 0.13920999999999994 0.9621900000000002     O
O     0.18306900000000004  0.21553 0.139211     O
O     0.1830699999999999 0.21552999999999994 0.9621900000000002     O
O     0.18306999999999998  0.13921 0.21552900000000003     O
O     0.18307099999999996 0.9621890000000001 0.21552900000000003     O
C     0.18319999999999992 0.183199 0.08834000000000002     C
C     0.18319999999999997 0.0452598 0.08834000000000002     C
C     0.18319999999999997 0.08833920000000002 0.18319900000000003     C
C       0.1832 0.08834060000000002 0.04525950000000001     C
C     0.183201 0.04526019999999999 0.18319900000000003     C
C     0.18320100000000006 0.183199 0.04525950000000001     C
C     0.183859 0.18385899999999997 0.0229708     C
C     0.1838599999999999 0.18385899999999997 0.10930900000000002     C
C     0.18385999999999997 0.02297089999999999 0.10930900000000002     C
C     0.18385999999999997 0.109309 0.0229708     C
C      0.18386 0.10930900000000002 0.18386000000000002     C
C     0.18386000000000002 0.022969399999999966 0.18386000000000002     C
O     0.18393900000000013 0.7677400000000001   0.6747     O
O     0.18393999999999983 0.6746989999999999 0.8736200000000002     O
O     0.18393999999999994 0.7677379999999998 0.8736200000000002     O
O     0.18393999999999994 0.8736199999999998   0.6747     O
O      0.18394 0.6746989999999999 0.7677390000000001     O
O     0.1839409999999999 0.8736190000000001 0.7677390000000001     O
H     0.18775341731724204 0.6015686646243049 0.9846997014745026     H
H     0.18776394668069735 0.7259761389144617 0.6015486749216453     H
H     0.18805474427797492 0.9595625269211152 0.7671528179442249     H
O     0.18846339249818364 0.9666374964953853 0.6183405782412726     O
O     0.18846380786030753 0.726548487317519 0.9666337056655886     O
O     0.1884653216548426 0.6183402818075951 0.7265490282834456     O
O     0.18853752830147708 0.931235726906146 0.7519003216733656     O
O     0.18900750885568457 0.7283206584386095 0.6376960909981686     O
O     0.18901407989785096 0.6377108459244667 0.9449595558714247     O
H     0.189093 0.835818 0.3268130000000001     H
H     0.18909399999999998 0.14827599999999996 0.3268130000000001     H
H     0.18909400000000004 0.14827600000000002 0.835818     H
H     0.18909400000000004 0.326812 0.14827500000000002     H
H     0.1890940000000001 0.3268119999999999 0.835818     H
H     0.1890940000000001 0.835818 0.14827500000000002     H
C     0.189849 0.822789 0.167331     C
C     0.1898499999999999 0.16732999999999998 0.8227890000000001     C
C     0.18984999999999996 0.16732999999999998  0.32003     C
C     0.18984999999999996 0.822789  0.32003     C
C     0.18985099999999994  0.32003 0.8227890000000001     C
C     0.189851 0.320029 0.167331     C
H     0.1904599999999999 0.31523199999999996 0.7633700000000001     H
H     0.19045999999999996 0.230937 0.315232     H
H     0.19045999999999996 0.763369 0.315232     H
H     0.19045999999999996  0.76337 0.23093800000000003     H
H     0.19046000000000002 0.315232 0.23093800000000003     H
H     0.19046099999999988 0.2309369999999999 0.7633700000000001     H
C     0.19183999999999984 0.21433999999999997 0.7806200000000001     C
C     0.19183999999999998 0.3131989999999999 0.21434000000000003     C
C     0.19184000000000004  0.78062 0.21434000000000003     C
C     0.191841  0.21434 0.31319900000000006     C
C     0.191841 0.7806199999999999 0.31319900000000006     C
C     0.19184100000000004 0.31319899999999995 0.7806200000000001     C
C     0.19378899999999993  0.55243 0.0745704     C
C     0.193789 0.07456949999999996  0.55243     C
C     0.1937899999999999 0.6792099999999999  0.55243     C
C      0.19379 0.552429  0.67921     C
C     0.19379000000000002  0.67921 0.0745704     C
C     0.19379100000000007 0.07456889999999997  0.67921     C
O     0.1943823874672213 0.6275206475067627 0.7583996658018539     O
O     0.19438766211928768 0.9196874591406221 0.6275195463914662     O
O     0.19439023818092055 0.7583916441979428 0.9196820721730896     O
O     0.19555504561944503 0.5912783950668316 0.9734372577136828     O
O     0.19556669133152077 0.7397263046470123 0.5912601621246855     O
C     0.19568899999999984  0.82921 0.7855100000000002     C
C      0.19569 0.829208 0.689591     C
C     0.19569000000000003 0.6895889999999998 0.7855100000000002     C
C     0.19569000000000003 0.6895889999999999 0.8292090000000001     C
C     0.19569000000000003  0.78551 0.8292090000000001     C
C     0.1956900000000001 0.7855080000000001 0.689591     C
C     0.19591799999999993  0.56308   0.6523     C
C     0.19591900000000007 0.6522999999999999 0.5630790000000001     C
C     0.19591999999999993 0.08870039999999996 0.5630790000000001     C
C     0.19591999999999998 0.08870050000000002   0.6523     C
C     0.19591999999999998 0.652299 0.08870060000000002     C
C     0.1959200000000001  0.56308 0.08870060000000002     C
O     0.19610899999999987  0.89595 0.7039700000000001     O
O     0.1961099999999999 0.7039689999999998 0.7039700000000001     O
O     0.19611000000000012 0.7039689999999998 0.8959500000000001     O
C     0.19630899999999996 0.6889689999999999 0.8516900000000001     C
C     0.19630900000000007 0.6889699999999999 0.7630310000000001     C
C     0.19630999999999996 0.7630289999999998 0.6889690000000002     C
C     0.19630999999999998 0.851688 0.7630310000000001     C
C      0.19631 0.8516899999999998 0.6889690000000002     C
C     0.19631000000000004 0.763029 0.8516900000000001     C
O     0.19644637039899115 0.6032240048921625 0.9290987418875633     O
O     0.1964477684842746 0.771232430515923 0.6032078819675427     O
H     0.19769790443689317 0.7816659788156634 0.9379081464576365     H
H     0.19770471792194128 0.5827082737285503 0.7816636277556299     H
H     0.1977096412352022 0.9379131278388623 0.5827073060753899     H
O     0.19886900000000005 0.12077000000000002 0.018509600000000005     O
O     0.19887000000000002 0.01850949999999999 0.12076900000000003     O
O     0.19887099999999994 0.12076899999999999 0.16185000000000002     O
O     0.198871 0.018509199999999983 0.16185000000000002     O
O     0.19887100000000002  0.16185 0.12076900000000003     O
O     0.19887100000000005 0.16185000000000002 0.018509600000000005     O
O     0.2000809498433882 0.7650886190676686 0.9521279080986653     O
O     0.20008966040195397 0.5826855060275177 0.765084299777161     O
O     0.20009186202268478 0.9521317210660749 0.5826849769880693     O
C     0.20086899999999996 0.05812969999999998 0.16045100000000004     C
C     0.20086899999999996 0.08054929999999998 0.16045100000000004     C
C     0.20086999999999994 0.160449 0.05813060000000001     C
C     0.20086999999999997 0.05813020000000001 0.0805499     C
C      0.20087 0.0805497 0.05813060000000001     C
C      0.20087 0.160449 0.0805499     C
S     0.20170442059408722 0.6115871224990869 0.9431785673956019     S
S     0.20170499890971053 0.7435312066796524 0.6115739505597131     S
S     0.20171131637277276 0.6115659673823763 0.7435725848427852     S
S     0.2017118361104307 0.743570746505702 0.9431390573714745     S
S     0.20171294341294066 0.9431424188370939 0.6115654287304357     S
O     0.20448821322980304 0.9462190175034952 0.7694684054920525     O
Cr    0.20588899999999982 0.1522699999999999 0.9895700000000001    Cr
Cr    0.20588899999999993 0.15226999999999996 0.15227100000000002    Cr
Cr    0.20588899999999993 0.989569 0.15227100000000002    Cr
C     0.20625899999999986 0.9520800000000001   0.1354     C
C     0.20625999999999994 0.20625999999999994 0.9520790000000001     C
C     0.20625999999999997 0.13539999999999996 0.20626000000000003     C
C     0.20625999999999997 0.9520800000000001 0.20626000000000003     C
C      0.20626 0.20626099999999997   0.1354     C
C     0.20626000000000005 0.1353999999999999 0.9520790000000001     C
C     0.2097199999999999 0.12016099999999996 0.920879     C
C     0.20971999999999996  0.92088 0.12015900000000002     C
C      0.20972 0.12015999999999999 0.24923900000000002     C
C     0.20972000000000002 0.24923999999999996 0.12015900000000002     C
C     0.20972100000000002 0.920879 0.24923900000000002     C
C     0.20972100000000005 0.24924000000000002 0.920879     C
O     0.210399 0.7278389999999998 0.9110600000000001     O
O     0.21039900000000006  0.91106  0.72784     O
O     0.2103990000000001 0.7278389999999999 0.6507000000000001     O
O     0.21039999999999992 0.650699 0.9110600000000001     O
O     0.21039999999999998 0.9110589999999998 0.6507000000000001     O
O     0.21040000000000003 0.6506990000000001  0.72784     O
S     0.21159815239684293 0.9246360208895368 0.7572218600612044     S
H     0.21310799999999996 0.0916434 0.144693     H
H     0.213108 0.144693 0.09164360000000002     H
H     0.21310899999999994 0.050554399999999985 0.144693     H
H     0.21310899999999994 0.0916433 0.05055490000000001     H
H     0.213109 0.05055509999999999 0.09164360000000002     H
H     0.213109 0.144693 0.05055490000000001     H
C     0.21433899999999984 0.19183999999999996 0.7806200000000001     C
C     0.21433899999999992 0.31320099999999995 0.191839     C
C     0.21433899999999995 0.31319899999999995 0.7806200000000001     C
C     0.21433900000000003 0.191841 0.31319900000000006     C
C     0.21433900000000003 0.7806199999999999 0.31319900000000006     C
C     0.2143400000000001  0.78062 0.191839     C
C     0.21448899999999996 0.804309 0.3104100000000001     C
C     0.21448900000000004  0.17079 0.8043100000000001     C
C     0.21448900000000004 0.3104089999999999 0.8043100000000001     C
C      0.21449 0.31040999999999996 0.17079000000000003     C
C      0.21449 0.8043100000000001 0.17079000000000003     C
C     0.21449000000000004 0.17078999999999997 0.3104100000000001     C
O     0.21518899999999996  0.69435 0.8495500000000001     O
O     0.21518899999999996 0.849549  0.69435     O
O     0.21518999999999994  0.69435 0.7409090000000002     O
O      0.21519 0.740909  0.69435     O
O     0.21519000000000005 0.740909 0.8495500000000001     O
O     0.21519100000000013 0.8495489999999999 0.7409090000000002     O
O     0.21552899999999992 0.13920999999999994 0.9621900000000002     O
O     0.21552999999999983 0.1830699999999999 0.9621900000000002     O
O     0.2155299999999999 0.9621890000000001 0.18307100000000004     O
O     0.21552999999999994 0.183069 0.139211     O
O     0.21552999999999994 0.9621900000000001 0.139211     O
O      0.21553  0.13921 0.18307100000000004     O
H     0.21613199999999988 0.888878 0.28452200000000005     H
H     0.21613199999999994 0.284523 0.8888770000000001     H
H     0.216132 0.11046799999999997 0.28452200000000005     H
H     0.21613299999999985 0.11046599999999995 0.8888770000000001     H
H     0.21613299999999985 0.888876 0.11046700000000001     H
H     0.21613299999999996 0.28452299999999997 0.11046700000000001     H
H     0.21639099999999992 0.7054109999999999 0.5336260000000002     H
H     0.21639099999999997 0.044570099999999974 0.5336260000000002     H
H     0.21639099999999997 0.7054109999999999 0.0445715     H
H     0.21639100000000003 0.04457159999999996 0.7054110000000001     H
H     0.21639100000000003 0.533625 0.0445715     H
H     0.216392 0.533626 0.7054110000000001     H
C     0.21685899999999989  0.53806 0.6864200000000001     C
C     0.21685899999999994  0.68642 0.5380600000000001     C
C     0.21685999999999991 0.05865969999999998 0.5380600000000001     C
C     0.21685999999999991 0.05865999999999996 0.6864200000000001     C
C     0.21686000000000005 0.6864189999999999 0.058660800000000006     C
C     0.21686099999999997 0.5380590000000001 0.058660800000000006     C
C     0.21937899999999994 0.8081589999999998 0.7856600000000001     C
C     0.21937999999999985 0.6867999999999999 0.8081590000000001     C
C     0.2193799999999999 0.6867989999999999 0.7856600000000001     C
C     0.21937999999999994  0.78566 0.6868000000000001     C
C     0.21937999999999994  0.80816 0.6868000000000001     C
C     0.21938000000000002 0.785659 0.8081590000000001     C
C     0.22100899999999993 0.6327900000000001 0.08955040000000002     C
C     0.22100900000000004  0.55665 0.08955040000000002     C
C     0.22100999999999998 0.08954999999999996  0.55665     C
C     0.22100999999999998 0.08955020000000002 0.6327890000000002     C
C     0.22101099999999996 0.5566499999999999 0.6327890000000002     C
C     0.22101099999999996 0.632789  0.55665     C
C     0.22214899999999999 0.12321099999999996 0.9324900000000002     C
C     0.2221499999999999 0.22215099999999993 0.9324900000000002     C
C     0.2221499999999999 0.932489 0.22215000000000001     C
C     0.22214999999999996 0.932489 0.12320900000000001     C
C     0.22215000000000001  0.12321 0.22215000000000001     C
C     0.22215000000000007 0.222151 0.12320900000000001     C
H     0.2231019999999999 0.10240199999999999 0.6131140000000002     H
H     0.2231019999999999 0.6131150000000001 0.5613800000000001     H
H     0.22310299999999983 0.5613810000000001 0.10240200000000002     H
H     0.22310299999999988 0.613113 0.10240200000000002     H
H     0.223103  0.56138 0.6131140000000002     H
H     0.22310400000000002 0.10240199999999999 0.5613800000000001     H
O     0.22327302183694586 0.8994979682883815 0.7740609347415497     O
C     0.22529899999999997 0.11143999999999997 0.2645600000000001     C
C     0.22529899999999997 0.264561 0.11143900000000001     C
C     0.2252999999999999 0.11144099999999996 0.8987000000000002     C
C       0.2253 0.26455999999999996 0.8987000000000002     C
C       0.2253 0.8986999999999999 0.2645600000000001     C
C     0.22530099999999992 0.898699 0.11143900000000001     C
H     0.2291689068884974 0.8045444302630064 0.37296983679754186     H
H     0.2291697728951561 0.09331706609088042 0.8045421659511105     H
H     0.22917148196655587 0.3729675133651138 0.0933161695942277     H
O     0.23039766928178035 0.8038870154796924 0.07561029539959765     O
O     0.23040222299723379 0.39009292356545383 0.80388932284277     O
O     0.23041346029551946 0.0756431274633367 0.3900534719435954     O
H     0.230937 0.31523199999999996 0.7633700000000001     H
H     0.23093799999999987 0.1904599999999999 0.7633700000000001     H
H     0.23093799999999992 0.315232 0.19045900000000002     H
H     0.23093799999999998 0.19046000000000002 0.315232     H
H     0.23093799999999998 0.763369 0.315232     H
H     0.23093800000000014 0.7633699999999999 0.19045900000000002     H
Cr    0.23195999999999986  0.86668 0.7006800000000001    Cr
Cr    0.23195999999999994 0.7006799999999999 0.8666800000000002    Cr
Cr    0.23195999999999997 0.700679 0.7006800000000001    Cr
O     0.23225899999999994  0.81606 0.32530000000000003     O
O     0.23225899999999997 0.32530000000000003  0.12638     O
O     0.232259  0.12638 0.32530000000000003     O
O     0.2322599999999999 0.12637999999999994 0.8160590000000001     O
O     0.2322599999999999 0.3252999999999999 0.8160590000000001     O
O     0.23226000000000005 0.816059  0.12638     O
O     0.2325136179902859 0.8037262687834393 0.4096376869639015     O
O     0.23251428660904516 0.0541212537200641 0.8037270388270615     O
O     0.23251513839515994 0.40963489119598984 0.05412119410046112     O
F     0.23370899999999997 0.8437490000000001 0.34455100000000005     F
F     0.23370999999999986 0.344549 0.8437500000000002     F
C     0.23421999999999982 0.903179 0.646099     C
C     0.23421999999999987 0.7165009999999998 0.9031790000000001     C
C     0.23421999999999993 0.6460999999999999   0.7165     C
C     0.23422000000000004 0.9031789999999997   0.7165     C
C     0.2342200000000001 0.6460999999999999 0.9031790000000001     C
C     0.23422100000000007 0.716499 0.646099     C
C     0.23637899999999995 0.6029800000000001 0.7266990000000001     C
C     0.2363799999999997  0.60298 0.9339400000000001     C
C     0.23637999999999992 0.7266989999999999 0.9339400000000001     C
C     0.23638000000000003 0.7266989999999999 0.6029790000000002     C
C     0.23638000000000003 0.933939 0.6029790000000002     C
C     0.236381 0.9339389999999999 0.7266990000000001     C
H     0.23662799999999984 0.6847689999999999 0.7690630000000002     H
H     0.23662899999999987 0.684768 0.8095390000000001     H
H     0.23662899999999987 0.8095390000000001 0.7690630000000002     H
H     0.23662899999999998 0.809539 0.6847690000000001     H
H     0.23662900000000003 0.769062 0.6847690000000001     H
H     0.2366290000000002 0.7690620000000001 0.8095390000000001     H
C     0.23696900000000004 0.14831099999999997  0.80369     C
C     0.2369690000000001 0.8036889999999999 0.14831100000000003     C
C     0.23696999999999996 0.14830899999999997  0.31103     C
C     0.23696999999999996 0.311029 0.14831100000000003     C
C     0.23696999999999996 0.31102900000000006  0.80369     C
C     0.23697000000000007 0.803689  0.31103     C
F      0.23981  0.98389 0.13815000000000002     F
F     0.23981099999999994 0.13814899999999997 0.9838900000000002     F
C     0.24016900000000002 0.06201049999999997 0.5299100000000001     C
C     0.24016900000000002 0.529911 0.062009100000000004     C
C     0.24016999999999988  0.66791 0.5299100000000001     C
C      0.24017 0.5299099999999999 0.6679100000000001     C
C      0.24017 0.667911 0.062009100000000004     C
C     0.24017000000000005 0.06200919999999993 0.6679100000000001     C
H     0.24215099999999998 0.7343999999999999   0.5635     H
H     0.24215100000000003 0.959947   0.5635     H
H     0.24215199999999987 0.563499 0.9599470000000001     H
H     0.24215199999999995 0.959948 0.7344000000000002     H
H     0.24215199999999998 0.7343999999999999 0.9599470000000001     H
H     0.242152 0.5634989999999999 0.7344000000000002     H
C     0.2432689999999999  0.64041 0.0726506     C
C     0.24326899999999996 0.07264970000000004  0.64041     C
C     0.24326999999999985 0.07264969999999996 0.5436690000000001     C
C     0.24326999999999993 0.543669 0.0726506     C
C      0.24327 0.543671  0.64041     C
C     0.243271 0.640409 0.5436690000000001     C
O     0.244799 0.7076810000000001 0.8847390000000002     O
O     0.24479999999999974 0.8847390000000002 0.6627800000000001     O
O       0.2448  0.88474 0.7076790000000001     O
O     0.24480099999999988 0.707679 0.6627800000000001     O
O     0.24480100000000002 0.662779 0.7076790000000001     O
O     0.24480100000000016 0.6627789999999999 0.8847390000000002     O
H     0.24636766954614928 0.3767438492544407 0.004826496953839287     H
H     0.24636786123255922 0.004824892082410992 0.8720653799140806     H
H     0.2463678886647161 0.872065323411177 0.37674082514077073     H
O     0.2476641480404421 0.8025591636053279 0.36515369601857645     O
O     0.24766512757098458 0.0846235901255285 0.8025564408456559     O
O     0.24766684715717277 0.3651517819890866 0.08462235875184505     O
C     0.24921999999999966  0.62114 0.9149990000000001     C
C     0.24921999999999972 0.9149990000000001 0.714639     C
C     0.24921999999999986 0.9149989999999998 0.6211400000000001     C
C     0.24921999999999989 0.714639 0.9149990000000001     C
C     0.249221 0.714639 0.6211400000000001     C
C     0.24922100000000003  0.62114 0.714639     C
C     0.249239 0.12016099999999996 0.920879     C
C     0.2492399999999999 0.2097199999999999 0.920879     C
C     0.2492399999999999 0.920879 0.20971900000000002     C
C     0.24923999999999996  0.92088 0.12015900000000002     C
C     0.24924000000000002 0.12015999999999999 0.20971900000000002     C
C     0.24924000000000002 0.20972000000000002 0.12015900000000002     C
O     0.25036849419741175 0.02275970377975342 0.36185420799549495     O
O     0.2503693651997016 0.8650216406755556 0.022752918044488923     O
O     0.2503695305604964 0.3618566916944752 0.865025072519897     O
F     0.250459 -2.7755575615628914e-17 0.5000000000000001     F
F     0.25045900000000004      0.5      0.0     F
F     0.2504599999999999 -5.551115123125783e-17 0.7495400000000001     F
F      0.25046  0.74954      0.0     F
C     0.2512889999999999 0.577869 0.7252900000000001     C
C     0.2512889999999999  0.94555 0.7252900000000001     C
C     0.251289  0.72529 0.5778700000000001     C
C     0.2512899999999999 0.945549 0.5778700000000001     C
C     0.25128999999999996 0.5778699999999999 0.9455500000000001     C
C     0.25129000000000007 0.7252890000000001 0.9455500000000001     C
C     0.2529799999999999 0.252981 0.10411900000000002     C
C     0.25298000000000004 0.10411900000000002 0.8899200000000002     C
C     0.25298000000000004 0.8899190000000001 0.10411900000000002     C
C     0.2529809999999999 0.10411899999999999 0.252979     C
C     0.252981  0.88992 0.252979     C
C     0.25298100000000007 0.252979 0.8899200000000002     C
O     0.25423899999999994 0.700699 0.030279500000000004     O
O     0.254239 0.030280299999999954   0.7007     O
O     0.2542399999999999 0.7007000000000001 0.5147800000000001     O
O      0.25424 0.514779   0.7007     O
O     0.25424099999999994 0.030279399999999984 0.5147800000000001     O
O     0.25424100000000005 0.5147799999999999 0.030279500000000004     O
O     0.25527329905459295 0.8556860051907862 0.34500193768147835     O
O     0.2552733038012715 0.044037661793744076 0.8556860946990004     O
O     0.2552743444332058 0.34500453585856816 0.04403859941495466     O
O     0.2555099999999999 0.09668939999999987 0.8562290000000001     O
O     0.2555099999999999 0.2915699999999999 0.8562290000000001     O
O      0.25551 0.09668960000000001 0.2915690000000001     O
O      0.25551  0.29157 0.0966895     O
O      0.25551 0.856229 0.0966895     O
O     0.2555100000000001 0.8562299999999999 0.2915690000000001     O
F     0.25571999999999984 0.7064189999999999 0.8314400000000001     F
S     0.2565077817146582 0.7983046591026869 0.3880925548264658     S
S     0.2565085882240046 0.057094643246945076 0.7983038056918298     S
S     0.25650973014331124 0.3880906176824077 0.05709392133180455     S
S     0.2565471703106622 0.7983106969792726 0.057057638175375285     S
S     0.2565509294685241 0.38807582666034623 0.7983113730398907     S
S     0.25655900880407356 0.05708345917903401 0.3880426038891213     S
H     0.2581499999999999 0.12426999999999999 0.18910300000000002     H
H     0.2581499999999999 0.9284750000000002 0.18910300000000002     H
H      0.25815 0.189104 0.12427000000000002     H
H     0.25815099999999996 0.12427199999999994 0.9284750000000002     H
H     0.25815099999999996 0.1891029999999999 0.9284750000000002     H
H     0.2581510000000001 0.928475 0.12427000000000002     H
O     0.25908899999999996 0.150449 0.30565100000000006     O
O     0.259089  0.30565 0.15045100000000003     O
O     0.2590899999999998 0.7848100000000001 0.30565100000000006     O
O     0.2590899999999999  0.78481 0.15045100000000003     O
O     0.2590909999999999 0.15044999999999997 0.7848090000000001     O
O     0.259091 0.3056489999999999 0.7848090000000001     O
O     0.26078781641036775 0.001608845736368436 0.856422305482696     O
O     0.2607878670616711 0.8564222679378666 0.3811799680236726     O
O     0.2607885927983212 0.38118220947047204 0.0016094100483594754     O
C     0.26080899999999985 0.045770499999999964 0.6773490000000001     C
C     0.26080899999999996 0.045769699999999996  0.51607     C
C     0.26080899999999996  0.51607 0.04577010000000001     C
C     0.26080899999999996 0.6773499999999999  0.51607     C
C     0.26080899999999996 0.6773500000000001 0.04577010000000001     C
C      0.26081 0.5160689999999999 0.6773490000000001     C
Cr    0.2611989999999999 0.09320040000000002  0.82372    Cr
Cr    0.26119899999999996  0.82372 0.09320080000000001    Cr
Cr    0.261199 0.3218790000000001  0.82372    Cr
Cr    0.26119900000000007 0.823719 0.32188000000000005    Cr
Cr    0.26120000000000004  0.32188 0.09320080000000001    Cr
Cr    0.261201 0.09319929999999997 0.32188000000000005    Cr
H     0.262172 0.626369 0.5438270000000001     H
H     0.26217299999999993 0.06763019999999995 0.5438270000000001     H
H     0.26217299999999993 0.626369 0.06763000000000001     H
H     0.262173 0.06762959999999998 0.626369     H
H     0.2621730000000001 0.543827 0.626369     H
H     0.2621739999999999 0.543827 0.06763000000000001     H
O     0.2622586430552498 0.9541102140952679 0.8065236120280495     O
O     0.26225874213045036 0.4771072825051657 0.9541099347558992     O
O     0.26226036938495156 0.8065267660818924 0.47710754991528914     O
O     0.2625917655564063 0.809099978412181 0.028847932771204378     O
O     0.2625943063553993 0.3994503779129492 0.8091030211781681     O
O     0.26259630419611957 0.028874408817803704 0.399402220817156     O
C     0.2645589999999998 0.11144099999999996 0.8987000000000002     C
C     0.26455999999999985 0.22529899999999986 0.8987000000000002     C
C      0.26456   0.8987   0.2253     C
C     0.2645600000000001 0.11144000000000003   0.2253     C
C     0.2645600000000001   0.2253 0.11143900000000001     C
C     0.2645600000000001 0.898699 0.11143900000000001     C
H     0.2655989999999999 0.040052499999999935 0.7578480000000001     H
H     0.26559999999999995 0.04005159999999999 0.43650000000000005     H
H     0.26559999999999995 0.43649899999999997 0.7578480000000001     H
H     0.26559999999999995 0.7578469999999999 0.43650000000000005     H
H       0.2656 0.43650000000000005 0.0400518     H
H       0.2656 0.757847 0.0400518     H
O     0.2656945809531768 0.4957343534288722 0.7844044917970986     O
O     0.26569492457621136 0.7844016662545138 0.9541696192699313     O
C     0.26663899999999996 0.10164099999999998 0.8650800000000001     C
C      0.26664 0.10163999999999997 0.26664000000000004     C
C      0.26664  0.26664 0.10164000000000001     C
C      0.26664  0.26664 0.8650800000000001     C
C      0.26664 0.8650790000000002 0.10164000000000001     C
C      0.26664  0.86508 0.26664000000000004     C
O     0.2676992746661165 0.9438088440438368 0.5001953382655329     O
H     0.2685776314394579 0.7652887328625066 0.5110357127935178     H
H     0.2685780774116624 0.9551006555922594 0.7652857303387122     H
H     0.26857841225167167 0.5110360007540029 0.9550988426111584     H
O     0.26909518064165816 0.9766783452236653 0.45417956565853596     O
O     0.27215999999999985   0.7896 0.34930000000000005     O
O     0.2721599999999999 0.7896000000000001 0.08894030000000001     O
O     0.27215999999999996 0.349299 0.08894030000000001     O
O      0.27216 0.08894039999999992 0.7895990000000002     O
O     0.27216000000000007 0.08893969999999998 0.34930000000000005     O
O     0.27216099999999993   0.3493 0.7895990000000002     O
O     0.273014044694618 0.8070918444439187 0.06331873016747337     O
O     0.27302239077537754 0.3565675556664149 0.8070865653236188     O
O     0.2730436317050524 0.06335767457762354 0.35653607492068456     O
S     0.2732773593527175 0.02507586001661577 0.8421295108927607     S
S     0.27327739210688823 0.8421294612499971 0.35951621986630766     S
S     0.2732790629287916 0.3595179014253343 0.025075660197971146     S
C     0.27329999999999993 0.06605929999999993 0.7636190000000002     C
C     0.27329999999999993  0.39702 0.7636190000000002     C
C     0.27329999999999993 0.7636190000000002 0.06605910000000001     C
C       0.2733 0.06605989999999998 0.39701900000000007     C
C     0.2733000000000001 0.7636199999999999 0.39701900000000007     C
C     0.2733009999999999 0.397019 0.06605910000000001     C
S     0.2733047471091991 0.35952909342803213 0.8420840859406942     S
S     0.2733060177824931 0.8420817273319936 0.025083248001043668     S
S     0.27330706927428045 0.025087077404526606 0.3595264839623217     S
O     0.27331373609038584 0.44679023736660745 0.8011669172395699     O
O     0.27331479614509174 0.8011648661035635 0.9787309112098529     O
C     0.2747099999999999  0.05445 0.42213000000000006     C
C      0.27471  0.74871 0.42213000000000006     C
C     0.274711 0.054449199999999975 0.7487090000000001     C
C     0.274711 0.4221289999999999 0.054449000000000004     C
C     0.2747110000000001 0.4221289999999999 0.7487090000000001     C
C     0.2747110000000001 0.748709 0.054449000000000004     C
O     0.27489999999999976   0.5346 0.9721590000000002     O
O     0.2748999999999998 0.5345990000000002 0.7183400000000001     O
O     0.2748999999999998  0.97216 0.7183400000000001     O
O     0.27489999999999987  0.71834 0.9721590000000002     O
O     0.27490099999999984 0.972159 0.534599     O
O     0.27490099999999995 0.7183389999999998 0.534599     O
O     0.275081766044132 0.8118749925595927 0.3749699651970111     O
O     0.2750831045632554 0.03807397308014887 0.8118737411725487     O
O     0.27508427641777 0.37496766354758715 0.03807257799122636     O
C     0.27509899999999976   0.6978 0.6163200000000001     C
C     0.27509899999999987 0.910779 0.6163200000000001     C
C     0.275099  0.91078   0.6978     C
C     0.2750999999999998 0.6163200000000001   0.6978     C
C     0.27509999999999996 0.6977990000000001 0.9107800000000003     C
C     0.2751000000000002 0.6163190000000001 0.9107800000000003     C
O     0.2757154177371481 0.3529305704991738 0.8215945912636969     O
O     0.27572004441329434 0.8215913312508272 0.0497592276685361     O
O     0.2757245723930795 0.049761685626577734 0.3529256001044645     O
O     0.2780236212257937 0.8276818538628716 0.006431759531985383     O
O     0.27802418161033515 0.38786201766221917 0.8276833670028679     O
O     0.27802426858485296 0.0064353500779517625 0.3878603994817038     O
C     0.27857899999999985 0.9379199999999999 0.5718600000000001     C
C     0.2785799999999998 0.937919 0.7116390000000001     C
C     0.2785799999999999 0.5718590000000001 0.7116390000000001     C
C     0.27857999999999994 0.5718599999999999 0.9379190000000001     C
C     0.27857999999999994 0.7116389999999999 0.5718600000000001     C
C     0.27858000000000005 0.7116399999999999 0.9379190000000001     C
O     0.2798149848067354 0.7583037671778435 0.49669107442154375     O
O     0.2798168162962682 0.4966915849162653 0.9651900680086402     O
O     0.27981694610166546 0.9651912545101602 0.7583009815989419     O
S     0.28018518886003857 0.9601303890720516 0.47516264807784614     S
S     0.2816437836630774 0.7836373652382792 0.4695773515930387     S
S     0.2816441825985109 0.46957753862459106 0.9651433890045724     S
S     0.28164456191768755 0.9651433039407278 0.7836348591222821     S
O     0.281659 0.027840399999999987 0.46540000000000004     O
S     0.28165926202032093 0.46953398352542314 0.7836291088722679     S
O     0.2816599999999999 0.465399 0.7250990000000002     O
O     0.28165999999999997   0.4654 0.027839400000000004     O
O      0.28166 0.7250990000000002 0.46540000000000004     O
O      0.28166 0.7250990000000003 0.027839400000000004     O
O     0.28166000000000013 0.02783979999999997 0.7250990000000002     O
S     0.2816602797545786 0.7836272130651984 0.9651792918886446     S
H     0.2819365410659521 0.9964779872675124 0.4678835944582322     H
O     0.2821132064796439 0.7764461797347606 0.4507048032514033     O
O     0.2821156176568918 0.4507053618987949 0.9907373621319     O
O     0.28211685276584303 0.9907367253541091 0.776442310711291     O
H     0.2828749999999999 0.631951 0.6855290000000002     H
H     0.282875 0.6855279999999999 0.631951     H
H     0.28287599999999985 0.6319509999999999 0.8996430000000001     H
H     0.282876 0.8996420000000002 0.6855290000000002     H
H     0.282876 0.899643 0.631951     H
H     0.28287600000000007 0.6855279999999999 0.8996430000000001     H
C     0.283499  0.76578 0.0968201     C
C     0.28349999999999986 0.765779 0.35390000000000005     C
C     0.2834999999999999 0.09682000000000002 0.7657790000000001     C
C     0.2834999999999999 0.09682009999999998 0.35390000000000005     C
C       0.2835   0.3539 0.0968201     C
C     0.28350099999999995 0.353899 0.7657790000000001     C
O     0.28396999999999994  0.51355 0.0408704     O
O     0.28396999999999994 0.6616090000000001 0.0408704     O
O      0.28397 0.04087039999999997 0.661609     O
O      0.28397  0.51355 0.661609     O
O      0.28397  0.66161 0.5135500000000001     O
O     0.2839709999999999 0.04086929999999994 0.5135500000000001     O
Cr    0.2840999999999998   0.7159 0.5000000000000001    Cr
Cr    0.2840999999999999 -5.551115123125783e-17   0.7159    Cr
Cr      0.2841 -2.7755575615628914e-17 0.5000000000000001    Cr
Cr      0.2841 0.715899      0.0    Cr
Cr    0.2841000000000001      0.5      0.0    Cr
Cr    0.28410000000000013 0.49999899999999997   0.7159    Cr
H     0.28421840714424396 0.3914144689775466 0.8089499630083805     H
H     0.28421943298305075 0.808948347629542 0.01541729591338572     H
H     0.2842221898494623 0.015419602304745234 0.3914117949163359     H
H     0.2845229999999998 0.11046599999999995 0.8888770000000001     H
H     0.2845229999999999 0.888876 0.11046700000000001     H
H     0.284523 0.21613199999999994 0.8888770000000001     H
H     0.284523 0.216132 0.11046700000000001     H
H     0.2845230000000001 0.11046699999999998 0.21613200000000002     H
H     0.2845230000000001 0.8888770000000001 0.21613200000000002     H
O     0.2848395359421576 0.9796044743734623 0.4816496914255549     O
H     0.28484708725030927 0.814497912983914 0.04653162325613865     H
H     0.28485586005743296 0.35411561194889435 0.8144920932148247     H
H     0.28487676319986643 0.04657332383930536 0.3540773500565351     H
C     0.2853589999999999 0.08499939999999997 0.37886100000000006     C
C     0.2853589999999999 0.08500089999999988 0.7507790000000001     C
C     0.285359  0.75078 0.08499950000000002     C
C     0.28535900000000003 0.7507800000000001 0.37886100000000006     C
C      0.28536 0.37885899999999995 0.08499950000000002     C
C     0.28536000000000006  0.37886 0.7507790000000001     C
H     0.2864758919613297 0.2510526151107384 0.7379970061467587     H
H     0.28648260775886797 0.22447058253482222 0.25105422411349443     H
O      0.28744 0.056459699999999974 0.32532000000000005     O
O      0.28744 0.05645979999999995 0.8307790000000002     O
O      0.28744 0.325319 0.05646040000000001     O
O      0.28744 0.3253199999999999 0.8307790000000002     O
O      0.28744 0.8307789999999999 0.32532000000000005     O
O     0.28744000000000003 0.830779 0.05646040000000001     O
C     0.2883589999999999 0.4281409999999999 0.7214200000000001     C
C     0.28835999999999995 0.062079399999999924 0.7214200000000001     C
C     0.28835999999999995 0.721419 0.42813900000000005     C
C     0.28835999999999995  0.72142 0.062079300000000004     C
C     0.288361  0.42814 0.062079300000000004     C
C     0.28836100000000003 0.06207940000000001 0.42813900000000005     C
H     0.2890410411145472 0.45491476352982496 0.7553678727899905     H
H     0.28904486968694776 0.7553658468002317 1.0006766994063745     H
O     0.28913341828613776 0.4711364384972964 0.7537859744540643     O
O     0.28913655311733966 0.7537839279220893 0.985944918922223     O
C     0.2903689999999999  0.59115 0.9211890000000001     C
C     0.2903689999999999 0.697289 0.9211890000000001     C
C     0.290369  0.92119 0.6972890000000002     C
C     0.29036999999999985 0.921189 0.5911490000000001     C
C     0.2903699999999999  0.69729 0.5911490000000001     C
C      0.29037  0.59115 0.6972890000000002     C
C     0.2907589999999999 0.707339 0.5476010000000001     C
C     0.2907589999999999 0.9542989999999999 0.5476010000000001     C
C     0.29075899999999993 0.5475999999999999  0.70734     C
C     0.29075899999999993 0.9542999999999999  0.70734     C
C     0.290759  0.70734 0.9542990000000002     C
C     0.2907599999999998 0.5475999999999999 0.9542990000000002     C
O     0.29156899999999986 0.25551099999999993 0.8562290000000001     O
O     0.29156899999999997  0.25551 0.0966895     O
O     0.2915699999999999 0.09668939999999987 0.8562290000000001     O
O     0.2915699999999999 0.856229 0.25550900000000004     O
O      0.29157 0.0966904 0.25550900000000004     O
O      0.29157 0.856229 0.0966895     O
O     0.291660771829237 0.7472395383905809 0.2578463053946914     O
O     0.2923189999999999 0.7552000000000001 0.33722100000000005     O
O     0.29231899999999994 0.11526000000000003 0.755199     O
O     0.292319 0.115259 0.33722100000000005     O
O     0.29231900000000005 0.33721999999999996 0.11526000000000002     O
O     0.29231999999999997 0.3372199999999999 0.755199     O
O     0.29231999999999997 0.7551990000000001 0.11526000000000002     O
C     0.29265999999999986 0.04570039999999992 0.7092400000000001     C
C      0.29266 0.45239999999999997 0.7092400000000001     C
C     0.29266000000000003 0.045699699999999954 0.4524000000000001     C
C     0.29266000000000003  0.70924 0.045700000000000005     C
C     0.29266000000000003  0.70924 0.4524000000000001     C
C     0.29266000000000014 0.452399 0.045700000000000005     C
F     0.29357900000000003 0.2935789999999999 0.16856100000000002     F
F      0.29358 0.16856099999999996 0.7442790000000001     F
F     0.29358000000000006 0.744279 0.16856100000000002     F
O      0.29603 0.10404999999999998 0.803889     O
O      0.29603 0.10404999999999999 0.29603100000000004     O
O      0.29603 0.296029 0.10405100000000002     O
O      0.29603 0.803889 0.29603100000000004     O
O     0.29603000000000007 0.803889 0.10405100000000002     O
O     0.2960300000000001 0.296029 0.803889     O
H     0.29667561781031565 0.05046477044441486 0.5290243823604889     H
H     0.2966779971765904 0.5290203653628489 0.6238318030095099     H
O     0.2987844320477225 0.2657050722929029 0.7574022669212253     O
O     0.2987896613863532 0.17810461330981664 0.2657049055285485     O
O     0.2992989999999998  0.74576 0.9697190000000001     O
O     0.2992989999999999 0.9697200000000001 0.745761     O
O     0.2992999999999999  0.74576 0.48521900000000007     O
O     0.2992999999999999  0.96972 0.48521900000000007     O
O     0.29930000000000007 0.485219 0.745761     O
O     0.29930000000000007 0.485219 0.9697190000000001     O
Cr    0.299318 0.13332099999999997 0.29932000000000003    Cr
Cr    0.29931900000000006 0.29931899999999995 0.133321    Cr
Cr    0.2993190000000001 0.29932100000000006 0.768039    Cr
Cr     0.29932 0.768039 0.133321    Cr
Cr    0.29932000000000003  0.13332 0.768039    Cr
Cr    0.29932000000000003 0.768039 0.29932000000000003    Cr
O     0.3004795877920734 0.5369863453163418 0.059776862166953874     O
C     0.30197899999999994 0.007440769999999999    0.339     C
C      0.30198 0.0074398900000000046 0.8515790000000001     C
C      0.30198 0.3390000000000001 0.8515790000000001     C
C      0.30198 0.851579    0.339     C
C     0.3019800000000001 0.339001 0.007439300000000001     C
C     0.30198000000000014 0.8515789999999999 0.007439300000000001     C
C     0.302199 0.724899 0.38368100000000005     C
C     0.3021999999999999 0.08921949999999998 0.38368100000000005     C
C       0.3022 0.08921890000000002   0.7249     C
C       0.3022 0.383679   0.7249     C
C       0.3022 0.7249000000000001 0.089219     C
C     0.3022000000000001  0.38368 0.089219     C
H     0.3023809999999999 0.8588880000000001 0.369369     H
H     0.30238099999999996 0.9693609999999999 0.369369     H
H     0.302381 0.36936899999999995 0.9693610000000003     H
H     0.3023819999999998 0.8588880000000001 0.9693610000000003     H
H     0.3023820000000001 0.369369 0.8588880000000001     H
H     0.3023820000000001  0.96936 0.8588880000000001     H
C     0.30270899999999995  0.40885  0.70963     C
C     0.30270899999999995  0.70963 0.40885000000000005     C
C     0.30270999999999987 0.709631 0.07880950000000002     C
C     0.3027099999999999 0.4088490000000001 0.07880950000000002     C
C      0.30271 0.07880949999999998  0.70963     C
C     0.30271000000000003 0.0788103 0.40885000000000005     C
O     0.3036599999999998   0.4625 0.6830590000000001     O
O     0.3036599999999999 0.05078019999999997 0.4625000000000001     O
O     0.30366099999999985 0.05077979999999996 0.6830590000000001     O
O     0.303661 0.462499 0.050779000000000005     O
O     0.303661 0.6830589999999999 0.4625000000000001     O
O     0.303661  0.68306 0.050779000000000005     O
O     0.30399076912198614 0.23822252646027603 0.7360634589855379     O
O     0.3039968775323164 0.2217193362030854 0.2382230519595805     O
C     0.30529899999999993 0.305299 0.04790040000000001     C
C     0.305299   0.0479 0.30530000000000007     C
C     0.30529999999999996 0.04789959999999999 0.8414990000000001     C
C     0.30529999999999996 0.305301 0.8414990000000001     C
C       0.3053 0.841499 0.04790040000000001     C
C     0.3053000000000001 0.8414990000000001 0.30530000000000007     C
O     0.305649 0.259089 0.15045100000000003     O
O     0.305649  0.78481 0.15045100000000003     O
O     0.3056499999999999 0.15044999999999997 0.7848090000000001     O
O      0.30565  0.15045 0.259089     O
O     0.3056500000000001 0.7848110000000001 0.259089     O
O     0.30565099999999995  0.25909 0.7848090000000001     O
O     0.3058210318199662 0.07090762812541751 0.5454817005035546     O
O     0.30582272741058014 0.5454803114097008 0.5777861719175045     O
H     0.30606699999999987 0.44481100000000007 0.824999     H
H     0.30606699999999987 0.8249969999999999 0.9241230000000001     H
H     0.30606699999999987 0.924121 0.824999     H
H     0.30606799999999995 0.824998 0.44481100000000007     H
H     0.306068 0.44481100000000007 0.9241230000000001     H
H     0.306068 0.924122 0.44481100000000007     H
C     0.3104089999999999  0.17079 0.8043100000000001     C
C     0.310409  0.17079 0.21449100000000001     C
C     0.31040900000000005 0.8043100000000001 0.17079000000000003     C
C     0.31040999999999985 0.8043090000000002 0.21449100000000001     C
C     0.3104099999999999 0.21448999999999996 0.8043100000000001     C
C     0.31040999999999996 0.214489 0.17079000000000003     C
H     0.3106929999999999 0.686108 0.5867890000000001     H
H     0.31069299999999994 0.5867879999999999 0.9164080000000001     H
H     0.310693 0.586788 0.6861100000000001     H
H     0.310693 0.9164069999999999 0.5867890000000001     H
H     0.3106939999999999 0.9164070000000001 0.6861100000000001     H
H     0.3106940000000001 0.6861079999999999 0.9164080000000001     H
C     0.31102899999999994  0.80369 0.23697000000000001     C
C     0.31102900000000006 0.23696900000000004  0.80369     C
C     0.31102999999999986 0.23696900000000004 0.14831100000000003     C
C      0.31103 0.14831099999999997  0.80369     C
C     0.31103000000000003  0.14831 0.23697000000000001     C
C     0.31103099999999995 0.8036889999999999 0.14831100000000003     C
C     0.3127489999999998 0.31275100000000006 0.8541090000000001     C
C     0.3127499999999999 0.020390899999999934 0.8541090000000001     C
C     0.3127499999999999 0.31274900000000005 0.020390400000000003     C
C     0.3127499999999999 0.854109 0.31274900000000005     C
C      0.31275 0.020389799999999986 0.31274900000000005     C
C      0.31275 0.854109 0.020390400000000003     C
C     0.31319899999999984 0.21433999999999997 0.7806200000000001     C
C     0.3131989999999999  0.78062 0.21434000000000003     C
C     0.31319999999999987 0.19183999999999996 0.7806200000000001     C
C     0.3131999999999999 0.19184000000000004 0.21434000000000003     C
C     0.31320000000000003  0.21434 0.191839     C
C     0.31320000000000003  0.78062 0.191839     C
C     0.3132890000000001 0.3506899999999999 0.9796100000000001     C
C     0.3132890000000001 0.979609 0.35069000000000006     C
C     0.3132899999999999 0.8564080000000001 0.9796100000000001     C
C     0.31328999999999996 0.979609 0.8564090000000001     C
C      0.31329 0.856409 0.35069000000000006     C
C     0.31329000000000007 0.35068999999999995 0.8564090000000001     C
C     0.31357999999999986 0.4619399999999999 0.9413400000000001     C
C     0.31357999999999986 0.7831400000000001 0.9413400000000001     C
C     0.3135799999999999 0.4619400000000001 0.7831400000000001     C
C      0.31358 0.9413390000000001 0.7831400000000001     C
C     0.3135800000000001 0.9413389999999999  0.46194     C
C     0.313581 0.783139  0.46194     C
H     0.313889 0.08359229999999995 0.6893060000000001     H
H     0.31389000000000006 0.6893049999999998 0.08359230000000001     H
H     0.31389099999999986 0.41321100000000005 0.08359230000000001     H
H     0.3138909999999999 0.08359109999999997 0.4132120000000001     H
H     0.3138909999999999 0.4132119999999999 0.6893060000000001     H
H     0.313891 0.689305 0.4132120000000001     H
H     0.31446999999999986 0.368048 0.717124     H
H     0.3144699999999999 0.10035699999999999 0.36804800000000004     H
H     0.3144699999999999 0.717125 0.36804800000000004     H
H      0.31447 0.36804800000000004 0.10035600000000001     H
H     0.31447099999999995 0.717125 0.10035600000000001     H
H     0.314471 0.10035599999999995 0.717124     H
H     0.31523099999999993 0.1904599999999999 0.7633700000000001     H
H     0.31523099999999993 0.230939 0.19045900000000002     H
H     0.315232 0.7633699999999999 0.19045900000000002     H
O     0.3155909758343821 0.04250622381571034 0.522669923376779     O
O     0.3155933377719574 0.5226667471333498 0.6192291881543003     O
O     0.3162289999999999 0.5000009999999999 0.6837690000000001     O
O     0.316229 -2.7755575615628914e-17 0.5000000000000001     O
O     0.31622900000000004      0.5      0.0     O
O     0.31622999999999996  0.68377      0.0     O
O      0.31623 0.683769 0.5000000000000001     O
O     0.316231 -2.7755575615628914e-17 0.6837690000000001     O
S     0.31665145691066743 0.24187536695447043 0.7510755334992414     S
S     0.3166560828196012 0.1903941507050743 0.24187449750696918     S
S     0.3167019561194043 0.7510647720064972 0.2418563401300504     S
O     0.3169389999999999 0.5374999999999999 0.9492200000000001     O
O     0.3169389999999999  0.69634 0.5374990000000001     O
O     0.3169390000000001 0.5374999999999999 0.6963400000000001     O
O     0.31693999999999994 0.949219 0.5374990000000001     O
O     0.3169409999999997 0.949219 0.6963400000000001     O
O     0.31694099999999986 0.696339 0.9492200000000001     O
C     0.32002899999999995 0.822789 0.167331     C
C     0.32002999999999987 0.16732999999999998 0.8227890000000001     C
C     0.32002999999999987 0.189851 0.8227890000000001     C
C     0.3200299999999999  0.16733 0.189849     C
C     0.3200299999999999 0.822789 0.189849     C
C      0.32003 0.189849 0.167331     C
Cr    0.320349 0.03562979999999996 0.6538300000000001    Cr
Cr    0.3203490000000002  0.65383 0.03562950000000001    Cr
Cr     0.32035 0.035629899999999964 0.4901890000000001    Cr
Cr     0.32035  0.49019 0.6538300000000001    Cr
Cr    0.32035099999999994 0.49018900000000004 0.03562950000000001    Cr
Cr    0.32035100000000005 0.6538289999999999 0.4901890000000001    Cr
C     0.320789  0.44757 0.8062100000000001     C
C     0.3207890000000001 0.8062099999999999 0.9254300000000001     C
C     0.3207899999999999 0.4475699999999999 0.9254300000000001     C
C     0.3207900000000001 0.806208 0.447571     C
C     0.3207900000000001 0.9254290000000001 0.447571     C
C     0.32079000000000013 0.9254279999999998 0.8062100000000001     C
Cr    0.32187899999999997 0.09320029999999997 0.26120000000000004    Cr
Cr    0.32187899999999997 0.26119999999999993  0.82372    Cr
Cr    0.3218790000000001 0.261199 0.09320080000000001    Cr
Cr     0.32188 0.09320040000000002  0.82372    Cr
Cr    0.32188000000000005  0.82372 0.09320080000000001    Cr
Cr    0.3218800000000001 0.8237189999999999 0.26120000000000004    Cr
C     0.32264899999999996 0.48392900000000005  0.73919     C
C     0.32264899999999996 0.9542290000000001  0.73919     C
C     0.3226499999999998 0.7391889999999999 0.9542290000000001     C
C     0.3226499999999999 0.739189 0.48392900000000005     C
C     0.3226510000000001 0.4839289999999999 0.9542290000000001     C
C     0.32265100000000013 0.954229 0.48392900000000005     C
O     0.3252989999999998 0.2322599999999999 0.8160590000000001     O
O     0.325299  0.81606 0.23225900000000002     O
O     0.3252999999999999 0.12637999999999994 0.8160590000000001     O
O     0.3252999999999999  0.23226  0.12638     O
O     0.3252999999999999 0.816059  0.12638     O
O     0.32530099999999995 0.12637999999999996 0.23225900000000002     O
O     0.32531999999999994 0.05646099999999998 0.28743900000000006     O
O      0.32532 0.05645979999999995 0.8307790000000002     O
O      0.32532 0.287441 0.05646040000000001     O
O      0.32532 0.287441 0.8307790000000002     O
O     0.32532000000000005 0.830779 0.05646040000000001     O
O     0.32532000000000005  0.83078 0.28743900000000006     O
H     0.32681199999999994 0.835818 0.18909300000000004     H
H     0.326812 0.14827600000000002 0.835818     H
H     0.326812 0.189095 0.835818     H
H     0.326812 0.835818 0.14827500000000002     H
H     0.32681299999999996 0.148275 0.18909300000000004     H
H     0.32681299999999996 0.189093 0.14827500000000002     H
S     0.32754593115219727 0.05112112569301583 0.534197778040556     S
S     0.3275476762759223 0.5341965905269459 0.5871315680637186     S
S     0.3275987645552378 0.5341735499928768 0.05111750097018081     S
F     0.32803899999999997  0.62144 0.4835610000000001     F
O     0.329039 0.016939999999999983 0.5221800000000001     O
O     0.329039 0.522179 0.016940600000000004     O
O     0.3290399999999999 0.016940599999999917 0.6318400000000001     O
O     0.3290399999999999 0.5221799999999999 0.6318400000000001     O
O     0.32903999999999994 0.631839 0.016940600000000004     O
O     0.329041 0.631839 0.5221800000000001     O
H     0.3306109999999999 0.03902859999999994 0.5854930000000002     H
H     0.3306109999999999 0.5854939999999998 0.5448660000000001     H
H     0.330611 0.5854930000000002 0.0390286     H
C     0.33208899999999997 0.4700900000000001  0.75983     C
C     0.33208999999999983 0.47008999999999984 0.9379900000000001     C
C     0.33208999999999983 0.7598299999999998 0.9379900000000001     C
C     0.33208999999999994 0.9379900000000001 0.47008900000000003     C
C      0.33209 0.7598290000000001 0.47008900000000003     C
C      0.33209 0.9379890000000001  0.75983     C
O     0.3336815021870871 0.7293999142509352 0.22671121578762865     O
O     0.33400698947852225 0.7494986300846552 0.2520474778985133     O
O     0.33455363541335154 0.7310563503500365 0.33366653781261435     O
O     0.3345540410090485 0.333671195025688 0.10071207751199496     O
O     0.33455758956950565 0.10071168905143849 0.7310516170262945     O
O     0.3348279999999999  0.92405 0.3683910000000001     O
O     0.33482799999999996 0.36839000000000005 0.9240500000000001     O
O     0.3348299999999999 0.36838999999999994 0.8727300000000001     O
O     0.3348299999999999 0.8727289999999999 0.9240500000000001     O
O      0.33483  0.87273 0.3683910000000001     O
O     0.3348309999999998 0.9240490000000001 0.8727300000000001     O
C     0.3350789999999998 0.021239499999999994   0.5603     C
C     0.3350789999999999  0.58338   0.5603     C
C     0.335079 0.560299  0.58338     C
C     0.3350799999999999  0.58338 0.0212401     C
C     0.33507999999999993 0.02123999999999998  0.58338     C
C      0.33508 0.5602990000000001 0.0212401     C
Cr      0.3364 0.8861780000000001 0.39124100000000006    Cr
Cr    0.33640000000000003 0.3912389999999999 0.8861800000000001    Cr
Cr    0.33640000000000014 0.886179 0.8861800000000001    Cr
O     0.3364589999999999  0.84968 0.41770000000000007     O
O     0.336459 0.8961600000000001 0.41770000000000007     O
O     0.3364599999999998   0.4177 0.8496790000000002     O
O      0.33646 0.41769899999999993 0.8961600000000001     O
O      0.33646 0.8496799999999998 0.8961600000000001     O
O     0.33646000000000004 0.8961600000000001 0.8496790000000002     O
O      0.33722 0.2923200000000001 0.11526000000000002     O
O      0.33722 0.2923200000000001 0.755199     O
O      0.33722 0.755201  0.29232     O
O     0.3372200000000001 0.11525899999999999  0.29232     O
O     0.33722099999999994 0.11526000000000003 0.755199     O
O     0.33722099999999994 0.7551990000000001 0.11526000000000002     O
C     0.33815899999999977 0.9657600000000001  0.33816     C
C     0.33815899999999993  0.85792 0.9657590000000003     C
C     0.33815900000000004  0.96576 0.8579190000000001     C
C     0.33815999999999996 0.33815999999999996 0.8579190000000001     C
C      0.33816 0.857919  0.33816     C
C     0.33816000000000007 0.3381609999999999 0.9657590000000003     C
O     0.3383889999999999 0.4864500000000001 0.9591300000000001     O
O     0.33838899999999994 0.4864510000000001 0.716029     O
O     0.33838899999999994 0.716031 0.486449     O
O      0.33839 0.716029 0.9591300000000001     O
O     0.3383900000000002 0.9591299999999999 0.486449     O
O     0.338391 0.959129 0.716029     O
H     0.3385599999999999 0.582106 0.9578070000000001     H
H     0.3385599999999999 0.9578069999999999 0.582108     H
H     0.33855999999999997 0.582108 0.621524     H
H     0.33855999999999997 0.9578069999999999 0.621524     H
H      0.33856 0.621523 0.582108     H
H      0.33856 0.6215249999999999 0.9578070000000001     H
C     0.338999 0.8515799999999999 0.30198100000000005     C
C        0.339 0.007439649999999992 0.30198100000000005     C
C     0.3390000000000001  0.30198 0.007439300000000001     C
C     0.3390000000000001 0.30198100000000005 0.8515790000000001     C
C     0.339001 0.0074398900000000046 0.8515790000000001     C
C     0.3390010000000001 0.8515789999999999 0.007439300000000001     C
C     0.3397399999999999 0.5815999999999999 0.9744590000000002     C
C     0.33973999999999993  0.97446 0.5815990000000001     C
C     0.33973999999999993  0.97446 0.604199     C
C     0.33974000000000004   0.5816 0.604199     C
C     0.3397400000000001 0.6041989999999999 0.9744590000000002     C
C     0.33974099999999996   0.6042 0.5815990000000001     C
O     0.3401537963399157 0.529853162769388 0.06783216646447328     O
O     0.3409240893124426 0.7205153407112179 0.1303305613400393     O
O     0.34092874946876317 0.13033344865052776 0.3082314964455021     O
O     0.3411367245409163 0.30864632592054814 0.7198069621032046     O
C     0.34129899999999985 0.6038809999999999 0.9964790000000002     C
C     0.34129899999999985 0.9964790000000001 0.6038800000000001     C
C     0.3412989999999999 0.6038799999999999  0.55834     C
C     0.3412999999999998 0.9964790000000001  0.55834     C
C     0.3412999999999999 0.5583389999999999 0.6038800000000001     C
C       0.3413 0.5583389999999999 0.9964790000000002     C
C     0.3430389999999997 0.9965200000000001 0.534359     C
C     0.3430389999999999  0.62608 0.534359     C
C     0.3430399999999998 0.626079 0.9965200000000001     C
C     0.34303999999999996 0.534359 0.6260790000000002     C
C      0.34304 0.534359 0.9965200000000001     C
C     0.3430409999999999 0.9965190000000002 0.6260790000000002     C
O     0.34397645143692995 0.23755983636280853 0.7354978112768905     O
O     0.3439818411836876 0.18296123790502405 0.23755690362088008     O
O     0.34427832471543285 0.43076775270373013 0.6798336545948566     O
O     0.34427840162204404 0.6798360538545414 0.0451171509424264     O
O     0.34427921441701215 0.045118418909875474 0.4307698416005756     O
O     0.3445315175598161 0.5094950215110399 0.03991481874416869     O
F      0.34455 0.0779908 0.23371000000000003     F
Cr    0.34616900000000006 0.6796499999999999 0.5098100000000001    Cr
Cr     0.34617  0.50981 0.9643690000000003    Cr
Cr    0.34617000000000003 0.5098099999999999 0.679649    Cr
Cr    0.34617000000000003  0.96437 0.679649    Cr
Cr    0.3461700000000001 0.9643689999999999 0.5098100000000001    Cr
Cr    0.3461709999999999 0.6796490000000001 0.9643690000000003    Cr
C     0.34638899999999984  0.87013 0.9370890000000001     C
C     0.3463899999999998 0.34639000000000003  0.87013     C
C     0.34638999999999986 0.346391 0.9370890000000001     C
C     0.3463899999999999 0.9370889999999998  0.87013     C
C      0.34639 0.870129 0.34639100000000006     C
C     0.34639000000000003 0.9370889999999997 0.34639100000000006     C
C     0.34769899999999976 0.911299 0.8040800000000001     C
C     0.347699 0.804079 0.9113000000000001     C
C       0.3477 0.911299 0.43691900000000006     C
C     0.3477000000000001 0.43691899999999995 0.9113000000000001     C
C     0.3477009999999999 0.43691900000000006 0.8040800000000001     C
C     0.34770100000000004 0.804079 0.43691900000000006     C
O     0.34793043910483845 0.712691226275908 0.09056958553034856     O
O     0.3479372258220478 0.09057129533348363 0.34880880830749456     O
O     0.34837230584977685 0.349011431294428 0.7121817079905404     O
O     0.34918900000000014  0.64465 0.5308700000000001     O
O     0.3491899999999999 0.5308699999999998 0.9752890000000001     O
O     0.34918999999999994 0.9752889999999999 0.5308700000000001     O
O      0.34919  0.53087 0.644649     O
O     0.3491909999999998  0.64465 0.9752890000000001     O
O     0.34919100000000003 0.975289 0.644649     O
O     0.34929899999999997 0.7896000000000001 0.08894030000000001     O
O     0.3492990000000001 0.08894039999999992 0.7895990000000002     O
O     0.3492999999999999  0.27216 0.7895990000000002     O
O     0.34929999999999994 0.0889408 0.27215900000000004     O
O       0.3493  0.27216 0.08894030000000001     O
O       0.3493 0.789599 0.27215900000000004     O
H     0.35060899999999995 0.018508499999999928 0.845925     H
H     0.35060899999999995 0.845925 0.018507600000000003     H
H     0.35060900000000006 0.845926 0.28495600000000004     H
H     0.35060999999999987 0.284956 0.845925     H
H     0.3506099999999999 0.0185076 0.28495600000000004     H
H     0.3506099999999999 0.28495600000000004 0.018507600000000003     H
C     0.35068799999999983  0.31329 0.9796100000000001     C
C     0.35068799999999994 0.9796099999999999 0.313291     C
C     0.35068899999999986 0.8564080000000001 0.9796100000000001     C
C     0.35068900000000003 0.856409 0.313291     C
C     0.35068999999999984 0.3132910000000001 0.8564090000000001     C
C     0.35068999999999984 0.979609 0.8564090000000001     C
O     0.3514626412171223 0.055207394029392814 0.5137781374026247     O
O     0.35146514729076306 0.5137782183987306 0.5795468597519188     O
H     0.3516788560084062 0.723363727916433 0.2257712161600816     H
O     0.3526033311447152 0.6891901835323887 0.4055750592584317     O
O     0.35260550056854184 0.4055730982100636 0.052628691044520864     O
C     0.353499 0.42589999999999995 0.8279200000000001     C
C     0.353499 0.8279199999999999 0.8926790000000001     C
C     0.353499 0.892679 0.8279200000000001     C
C     0.3534999999999998 0.42590099999999986 0.8926790000000001     C
C     0.3534999999999999 0.827919 0.42590000000000006     C
C     0.3534999999999999 0.8926789999999999 0.42590000000000006     C
O     0.35383277305570626 0.05218363322093936 0.6904228629309068     O
C     0.353899 0.765779   0.2835     C
C     0.3538999999999998 0.28350000000000003 0.7657790000000001     C
C     0.35389999999999994 0.09681959999999999   0.2835     C
C       0.3539   0.2835 0.0968201     C
C     0.35390000000000005  0.76578 0.0968201     C
C     0.3539010000000001 0.09682000000000002 0.7657790000000001     C
O     0.35498354491625317 0.6444510942303971 0.441476697621682     O
O     0.3549838738756167 0.44147366180357606 0.059089314851186986     O
O     0.35506785197059854 0.061507543919723545 0.6451829613650457     O
O     0.35534999999999983 0.650809 0.46913000000000005     O
O     0.35534999999999983 0.6508090000000001 0.024709300000000003     O
O     0.35534999999999994 0.024709399999999992 0.650809     O
O     0.35535000000000005 0.024709800000000004 0.46913000000000005     O
O     0.35535000000000005 0.4691299999999998 0.650809     O
O     0.355351 0.46912899999999996 0.024709300000000003     O
O     0.3573856614812784 0.311016425465731 0.1345599008382715     O
O     0.3573916057313522 0.697035328088769 0.3110061443022154     O
O     0.35739311155008924 0.1345565035133874 0.6970275998247996     O
S     0.35757100428823796 0.3230324293090117 0.1079126923514179     S
S     0.3575729388483292 0.711479900773293 0.3230263006013217     S
S     0.35757668294888445 0.10791001270931727 0.7114762534945774     S
S     0.3575827879024264 0.7114651272155793 0.10795511045897269     S
S     0.35758864027750925 0.1079562927848591 0.32299622105836445     S
S     0.35791417945357673 0.3231919030849415 0.7110200262723728     S
H     0.3592817822041656 0.6965139368201819 0.361374649222372     H
H     0.3592828342270634 0.3613790059976746 0.08281705478280667     H
H     0.3592952313342897 0.08280907677988386 0.6965151737083444     H
C     0.3595889999999999 0.4563289999999998 0.9273500000000001     C
C     0.35958899999999994  0.75673 0.45632900000000004     C
C     0.3595890000000001 0.45632999999999996 0.7567290000000001     C
C      0.35959 0.7567300000000001 0.9273500000000001     C
C     0.3595900000000001  0.92735 0.45632900000000004     C
C     0.35959099999999994 0.9273490000000002 0.7567290000000001     C
H     0.3597076018682068 0.05973741080939732 0.38420715919601434     H
H     0.35970768706339806 0.3842050850332043 0.6963490163675915     H
H     0.35970845153736575 0.6963523454647029 0.05973343909773511     H
H     0.3602271241866728 0.5000941172621338 0.04477213254571472     H
S     0.36681195942160183 0.6622921455071715 0.05380589531727275     S
S     0.36681211892286425 0.417089616067141 0.6622896517299315     S
S     0.36681319024686243 0.05380651323350097 0.4170915250360669     S
S     0.36682681032768505 0.6622378924139679 0.4171081527490044     S
S     0.3668281339760988 0.41710603432624127 0.05382586183161757     S
C     0.3672089999999999 0.778989 0.9104500000000001     C
C     0.367209  0.44335 0.9104500000000001     C
C     0.3672099999999998 0.9104490000000001 0.44334900000000005     C
C     0.3672099999999999 0.7789910000000001 0.44334900000000005     C
C     0.36721000000000004 0.910449 0.7789890000000002     C
C     0.36721099999999995 0.443349 0.7789890000000002     C
S     0.3675863202903987 0.05431642184497562 0.6632017456512839     S
O     0.368159 0.6709599999999999 0.9830600000000003     O
O     0.36815900000000007 0.6709609999999999 0.4778190000000001     O
O     0.3681599999999997 0.9830580000000001 0.6709600000000001     O
O     0.36815999999999993 0.4778189999999999 0.9830600000000003     O
O     0.36815999999999993 0.4778190000000001 0.6709600000000001     O
O     0.368161 0.9830590000000001 0.4778190000000001     O
O     0.3683890000000001 0.8727299999999999 0.33482900000000004     O
O     0.36838999999999983 0.334829 0.9240500000000001     O
O     0.3683899999999999 0.9240499999999999 0.33482900000000004     O
O     0.36838999999999994 0.3348289999999999 0.8727300000000001     O
O     0.36838999999999994 0.8727289999999999 0.9240500000000001     O
O     0.36838999999999994 0.9240490000000001 0.8727300000000001     O
O     0.36850378610736784 0.6366428560919427 0.07338222529619005     O
O     0.3685046026494177 0.4214716379861752 0.6366398037666026     O
O     0.3685063449750421 0.07338123122961634 0.42147387619768467     O
O     0.3689085725063141 0.3471892234798196 0.0945402107081183     O
O     0.36890966477129894 0.6893566851896651 0.3471833380749383     O
O     0.368920701890868 0.09453226238158832 0.6893568594479124     O
H     0.3693679999999999 0.30238199999999993 0.9693610000000003     H
H     0.369368 0.302382 0.8588880000000001     H
H     0.369368 0.969361 0.30238000000000004     H
H     0.3693689999999997 0.8588880000000001 0.9693610000000003     H
H     0.369369  0.96936 0.8588880000000001     H
H     0.36936900000000006 0.858888 0.30238000000000004     H
H     0.3710771528912252 0.6770027502802912 0.13764176879313456     H
H     0.3710890966294214 0.13763987492439816 0.3142738915486643     H
O     0.37121214841481875 0.38572266128623034 0.678365255304673     O
O     0.37121246896294513 0.06469867411095356 0.38572466333477573     O
O     0.3712125339998633 0.6783685190722014 0.06469589119117405     O
H     0.3717771376120117 0.314371912426214 0.6765268661226239     H
H      0.37363 0.7378280000000002 0.45617100000000005     H
H     0.37363099999999994 0.456171 0.737828     H
H     0.37363099999999994 0.737827 0.9323690000000001     H
H     0.37363099999999994 0.932368 0.737828     H
H     0.37363100000000005 0.45617200000000013 0.9323690000000001     H
H     0.37363100000000005 0.9323690000000001 0.45617100000000005     H
O     0.3736689999999998  0.87633 0.37367100000000003     O
O     0.373669  0.87633 0.8763290000000001     O
O     0.3736699999999999 0.3736709999999999 0.8763290000000001     O
C     0.3739189999999999 0.46563999999999994 0.0034809000000000003     C
C     0.37391999999999986 0.003479359999999987 0.46564000000000005     C
C     0.3739199999999999 0.656959 0.0034809000000000003     C
C     0.37392000000000003 0.0034789599999999476 0.6569610000000001     C
C     0.37392000000000003 0.4656389999999999 0.6569610000000001     C
C     0.3739200000000001 0.6569589999999998 0.46564000000000005     C
O     0.3742821208707662 0.6804728818638038 0.1195039163074151     O
O     0.3742934170502418 0.11950199399055286 0.3257365460142108     O
O     0.37496989162755456 0.3257606865335412 0.6801099628117699     O
O     0.3761599999999999  0.82762 0.4213390000000001     O
O     0.37615999999999994 0.42133999999999994 0.8748790000000001     O
O     0.37616000000000005 0.4213399999999998 0.8276200000000001     O
O     0.37616000000000016 0.8748799999999999 0.8276200000000001     O
O     0.3761600000000002 0.8748799999999999 0.4213390000000001     O
O     0.37616099999999986 0.827619 0.8748790000000001     O
F      0.37856  0.51644 0.6719600000000001     F
C     0.3788599999999998  0.28536 0.08499950000000002     C
C     0.3788599999999999 0.08499999999999998 0.28536000000000006     C
C     0.3788599999999999  0.75078 0.08499950000000002     C
C      0.37886 0.08500089999999988 0.7507790000000001     C
C      0.37886 0.7507800000000001 0.28536000000000006     C
C     0.3788609999999999 0.2853589999999999 0.7507790000000001     C
H     0.3795229514481694 0.6308502602100924 0.40402618759404096     H
H     0.37952430942337734 0.4040223445224545 0.0855997939207654     H
O     0.38023409983273493 0.6485390610155757 0.39475018912959803     O
O     0.38023598818763216 0.3947471275310981 0.0764747214985028     O
H     0.3812518623243112 0.085888302777438 0.6328266540410722     H
O     0.3821109675269089 0.0758512806331583 0.650436616224156     O
C     0.383679 0.302199   0.7249     C
C     0.38367999999999997 0.724899 0.302199     C
C      0.38368 0.08921890000000002   0.7249     C
C      0.38368 0.302201 0.089219     C
C      0.38368 0.7249000000000001 0.089219     C
C     0.383681 0.08921959999999998 0.302199     C
H     0.3868849999999999  0.43862 0.8975970000000001     H
H     0.3868859999999998 0.8975980000000001 0.43861900000000004     H
H     0.3868859999999999 0.4386189999999999 0.7768960000000001     H
H     0.386886 0.8975989999999998 0.7768960000000001     H
H     0.3868860000000001 0.776896 0.43861900000000004     H
H     0.38688699999999987 0.7768960000000001 0.8975970000000001     H
Cr    0.3912389999999999 0.33640000000000003 0.8861800000000001    Cr
Cr    0.39123899999999995 0.886179 0.33640000000000003    Cr
Cr    0.3912399999999997 0.886179 0.8861800000000001    Cr
H     0.3914639999999999 0.784211 0.26341400000000004     H
H     0.3914649999999999 0.26341300000000006  0.78421     H
H     0.39146499999999995 0.060910099999999995 0.26341400000000004     H
H     0.39146499999999995 0.263415 0.06090990000000001     H
H     0.3914659999999999 0.060909999999999964  0.78421     H
H     0.3914659999999999  0.78421 0.06090990000000001     H
F     0.3928889999999998 0.29973000000000005 0.903689     F
F     0.39288999999999985 0.9036889999999999  0.29973     F
Cr    0.39578899999999984  0.39579 0.8542100000000001    Cr
Cr    0.39578900000000006 0.8542089999999999 0.8542100000000001    Cr
Cr     0.39579 0.8542089999999999 0.39579000000000003    Cr
C     0.395799 0.41839899999999985 0.6602600000000001     C
C     0.395799 0.6602599999999998 0.41840000000000005     C
C     0.395799 0.660261 0.025539600000000003     C
C     0.3957999999999998 0.02553969999999997 0.41840000000000005     C
C     0.39579999999999993 0.02553929999999996 0.6602600000000001     C
C       0.3958 0.41840000000000005 0.025539600000000003     C
C     0.3961189999999999 0.003520549999999928 0.6586990000000001     C
C     0.3961189999999999 0.658699 0.0035198800000000004     C
C     0.3961199999999999 0.44166099999999997 0.6586990000000001     C
C     0.39612099999999995 0.0035199999999999954 0.4416590000000001     C
C     0.39612099999999995 0.6586999999999998 0.4416590000000001     C
C     0.396121  0.44166 0.0035198800000000004     C
C     0.39701999999999976 0.273299 0.7636190000000002     C
C     0.39702000000000004 0.7636189999999999 0.27329900000000007     C
C     0.3970209999999999 0.06605929999999993 0.7636190000000002     C
C     0.3970209999999999 0.7636190000000002 0.06605910000000001     C
C     0.39702099999999996 0.0660603 0.27329900000000007     C
C     0.397021   0.2733 0.06605910000000001     C
C     0.40884899999999996  0.30271  0.70963     C
C     0.40884899999999996 0.709631 0.07880950000000002     C
C     0.408849 0.07881059999999997 0.30271000000000003     C
C     0.408849 0.7096299999999999 0.30271000000000003     C
C     0.4088499999999999 0.07880949999999998  0.70963     C
C     0.40884999999999994 0.30271000000000003 0.07880950000000002     C
O     0.4093656229901229 0.888494278712143 0.40882433105044536     O
O     0.4093658695650487 0.793310869146289 0.8884958003866384     O
O     0.4093732349013049 0.4088262064718505 0.7933113407296584     O
O     0.4115245380212847 0.4165354583279966 0.9027323959729591     O
O     0.4115281190584332 0.9027310889448585 0.7692013607225046     O
O     0.41153020386242545 0.7692024161547169 0.4165383140745596     O
H     0.4132100000000001 0.08359229999999995 0.6893060000000001     H
H     0.4132109999999998  0.31389 0.6893060000000001     H
H     0.41321099999999983 0.31389000000000006 0.08359230000000001     H
H     0.4132109999999999 0.689305 0.313891     H
H     0.413211 0.08359129999999998 0.313891     H
H     0.41321100000000005 0.6893049999999998 0.08359230000000001     H
H     0.4140863261089009 0.7485242760818784 0.914088518592251     H
H     0.4140872893840028 0.9140840574819653 0.4233002294687284     H
H     0.41409406608176985 0.42330242532519874 0.7485241942077399     H
H     0.41450499999999985 0.9609710000000002 0.669389     H
H     0.41450499999999996 0.45513299999999995 0.669389     H
H     0.4145059999999998 0.669388 0.45513300000000007     H
H     0.4145059999999999 0.45513299999999995 0.9609700000000001     H
H     0.4145059999999999 0.669389 0.9609700000000001     H
H     0.41450599999999993 0.9609710000000001 0.45513300000000007     H
C     0.41661899999999985 0.43969900000000006  0.66492     C
C     0.4166199999999999 0.664918 0.43970000000000004     C
C     0.4166199999999999 0.664921 0.9787590000000002     C
C     0.4166199999999999 0.9787590000000002 0.43970000000000004     C
C     0.4166199999999999 0.9787600000000001  0.66492     C
C     0.4166209999999999   0.4397 0.9787590000000002     C
F     0.4176290000000001  0.83237 0.8323700000000002     F
O     0.41769999999999974 0.33645999999999987 0.8961600000000001     O
O     0.4176999999999998 0.8961600000000001 0.8496790000000002     O
O     0.4176999999999999  0.84968 0.33646000000000004     O
O     0.41769999999999996 0.8496799999999998 0.8961600000000001     O
O     0.4177009999999998 0.3364599999999999 0.8496790000000002     O
O     0.41770100000000004 0.8961589999999999 0.33646000000000004     O
H     0.41789299999999996 0.042191099999999954 0.6614390000000001     H
H     0.41789299999999996 0.378476 0.04219180000000001     H
H     0.417893 0.661439 0.04219180000000001     H
H     0.41789300000000007 0.04219229999999996 0.37847500000000006     H
H     0.41789300000000007 0.3784749999999999 0.6614390000000001     H
H     0.41789300000000007 0.6614389999999999 0.37847500000000006     H
C     0.41839899999999997 0.3957989999999999 0.6602600000000001     C
C     0.41839899999999997  0.66026 0.39579900000000007     C
C     0.4183999999999999 0.02553929999999996 0.6602600000000001     C
C       0.4184 0.660261 0.025539600000000003     C
C     0.4184000000000001 0.39580000000000004 0.025539600000000003     C
C     0.4184009999999999 0.02553929999999996 0.39579900000000007     C
O     0.4213389999999997 0.37616000000000005 0.8276200000000001     O
O     0.4213389999999999  0.82762 0.3761590000000001     O
O     0.421339 0.37616099999999986 0.8748790000000001     O
O     0.421339 0.8748799999999999 0.8276200000000001     O
O     0.42133999999999994 0.827619 0.8748790000000001     O
O     0.42134000000000005 0.874879 0.3761590000000001     O
C     0.4221299999999999 0.054448999999999984 0.27471000000000007     C
C     0.42212999999999995 0.054449199999999975 0.7487090000000001     C
C      0.42213 0.748709 0.27471000000000007     C
C     0.42213000000000006 0.27470999999999995 0.7487090000000001     C
C     0.42213000000000006 0.748709 0.054449000000000004     C
C     0.4221310000000001  0.27471 0.054449000000000004     C
C     0.4258989999999998 0.8279199999999999 0.8926790000000001     C
C     0.4258989999999998 0.892679 0.8279200000000001     C
C     0.4258989999999998  0.89268 0.35350000000000004     C
C     0.425899 0.353499 0.8279200000000001     C
C     0.425899  0.82792 0.35350000000000004     C
C     0.42590000000000006 0.3534999999999999 0.8926790000000001     C
C     0.42813999999999997 0.062079399999999924 0.7214200000000001     C
C     0.42813999999999997 0.06208029999999998 0.28835900000000003     C
C     0.42813999999999997 0.28835999999999995 0.7214200000000001     C
C     0.42813999999999997 0.288361 0.062079300000000004     C
C     0.42813999999999997  0.72142 0.062079300000000004     C
C     0.42813999999999997  0.72142 0.28835900000000003     C
O     0.4327202740254622 0.7459391956517784 0.9060763471971712     O
O     0.4327211382511364 0.9060718549290094 0.41526317890439207     O
O     0.43272790016100826 0.41526310746837103 0.7459396597488274     O
S     0.4354504160432099 0.7752238493140052 0.8888912728388537     S
S     0.4354504489288803 0.8888888482217591 0.40043178004865737     S
S     0.43545731557109735 0.4004309476652278 0.7752247482527375     S
S     0.4354935393160394 0.40041853618673706 0.8888544829853801     S
S     0.4354967519084507 0.8888535940190471 0.7752278192676968     S
S     0.4354984609539598 0.775229419494178 0.4004192108899681     S
H     0.43649999999999994 0.7578490000000001 0.26559900000000003     H
H       0.4365 0.040052499999999935 0.7578480000000001     H
H       0.4365 0.26559999999999995 0.7578480000000001     H
H     0.436501 0.04005170000000001 0.26559900000000003     H
H     0.436501 0.757847 0.0400518     H
H     0.43650100000000003 0.265599 0.0400518     H
C     0.43691899999999984 0.347699 0.8040800000000001     C
C     0.43691899999999995  0.80408 0.34770000000000006     C
C     0.43691900000000017 0.9112999999999999 0.34770000000000006     C
C      0.43692 0.34769899999999987 0.9113000000000001     C
C      0.43692 0.804079 0.9113000000000001     C
C      0.43692 0.911299 0.8040800000000001     C
C     0.43969899999999973 0.9787600000000001  0.66492     C
C     0.43969899999999984 0.978759 0.4166210000000001     C
C     0.43969900000000006 0.4166199999999999  0.66492     C
C     0.4396990000000002  0.66492 0.4166210000000001     C
C       0.4397 0.41661899999999996 0.9787590000000002     C
C     0.4397000000000001 0.664921 0.9787590000000002     C
O     0.44061725280305475 0.4002868604383022 0.8635613953909844     O
O     0.44062097719964866 0.8635598995152107 0.7955279900628843     O
O     0.4406229163979287 0.7955302232294654 0.40028708418463954     O
C     0.44165899999999997  0.39612 0.0035198800000000004     C
C     0.44165999999999983 0.396119 0.6586990000000001     C
C     0.44165999999999994 0.003520549999999928 0.6586990000000001     C
C      0.44166 0.00352023999999998 0.39611900000000005     C
C      0.44166 0.6586999999999998 0.39611900000000005     C
C     0.44166099999999986 0.658699 0.0035198800000000004     C
C     0.44334899999999977 0.778989 0.9104500000000001     C
C     0.4433489999999999 0.367209 0.9104500000000001     C
C     0.44334900000000005 0.9104490000000001 0.36721000000000004     C
C     0.44334999999999997  0.77899 0.36721000000000004     C
C     0.44335000000000013 0.910449 0.7789890000000002     C
C     0.44335099999999994 0.36721000000000004 0.7789890000000002     C
H     0.44481099999999985 0.9241230000000001 0.30606800000000006     H
H     0.44481099999999996 0.824997 0.30606800000000006     H
H     0.44481100000000007 0.30606699999999987 0.824999     H
H     0.4448119999999999 0.30606599999999995 0.9241230000000001     H
H     0.444812 0.8249969999999999 0.9241230000000001     H
H     0.444812 0.924121 0.824999     H
C     0.4475680000000001 0.8062099999999999 0.9254300000000001     C
C     0.4475689999999998  0.32079 0.9254300000000001     C
C     0.447569  0.32079 0.8062100000000001     C
C     0.4475690000000001 0.9254279999999998 0.8062100000000001     C
C     0.4475699999999998 0.806209 0.32079100000000005     C
C      0.44757  0.92543 0.32079100000000005     C
C     0.45239899999999983 0.04570010000000001 0.29266100000000006     C
C     0.45239899999999983  0.29266 0.7092400000000001     C
C     0.4523989999999999  0.70924 0.045700000000000005     C
C     0.45239899999999994 0.04570039999999992 0.7092400000000001     C
C     0.4523999999999999 0.292659 0.045700000000000005     C
C     0.45239999999999997 0.7092390000000001 0.29266100000000006     C
H     0.4551329999999999 0.669388 0.414506     H
H     0.45513299999999995 0.41450499999999996 0.669389     H
H     0.45513399999999976 0.669389 0.9609700000000001     H
H     0.45513399999999987 0.9609710000000002 0.669389     H
H     0.4551339999999999 0.9609710000000001 0.414506     H
H     0.4551349999999998 0.4145059999999999 0.9609700000000001     H
H     0.45617099999999977 0.3736289999999999 0.737828     H
H     0.4561709999999999 0.37363100000000005 0.9323690000000001     H
H     0.45617099999999994  0.93237 0.3736300000000001     H
H     0.4561719999999997 0.932368 0.737828     H
H     0.45617199999999986 0.737827 0.3736300000000001     H
H     0.45617299999999983 0.737827 0.9323690000000001     H
C     0.45632900000000015 0.7567300000000001 0.9273500000000001     C
C     0.4563299999999998 0.927349 0.359589     C
C     0.45632999999999985 0.359589 0.7567290000000001     C
C     0.45632999999999985 0.9273490000000002 0.7567290000000001     C
C     0.4563299999999999  0.75673 0.359589     C
C     0.45633000000000007 0.359589 0.9273500000000001     C
O     0.4579465858819116 0.8656961388851806 0.4038586043625658     O
O     0.45794675227442955 0.7724918783076067 0.8656991039589033     O
O     0.45795579011763704 0.4038541296923481 0.7724940146084002     O
O     0.459062662123438 0.40806849856278776 0.8850549132264262     O
O     0.4590667053678931 0.885055846129438 0.747808086238713     O
O     0.459069176685953 0.7478101749663062 0.4080659237668596     O
C     0.46193899999999977 0.3135800000000001 0.9413400000000001     C
C     0.4619389999999998 0.313579 0.7831400000000001     C
C     0.4619389999999999 0.941339 0.31357900000000005     C
C     0.46193999999999985 0.9413390000000001 0.7831400000000001     C
C     0.4619399999999999 0.783139 0.31357900000000005     C
C     0.4619399999999999 0.7831400000000001 0.9413400000000001     C
O     0.4624989999999999 0.30365999999999993 0.6830590000000001     O
O     0.462499 0.05077979999999996 0.6830590000000001     O
O     0.46249999999999986  0.68306 0.050779000000000005     O
O     0.46249999999999997  0.30366 0.050779000000000005     O
O       0.4625 0.050780699999999984 0.30365900000000007     O
O       0.4625 0.683059 0.30365900000000007     O
O     0.4653989999999999 0.725099 0.281661     O
O     0.46539899999999995  0.28166 0.027839400000000004     O
O     0.465399 0.027840199999999996 0.281661     O
O     0.4653999999999998 0.7250990000000003 0.027839400000000004     O
O     0.4653999999999999 0.02783979999999997 0.7250990000000002     O
O     0.4653999999999999 0.2816589999999999 0.7250990000000002     O
C     0.4656389999999999 0.3739199999999999 0.0034809000000000003     C
C     0.46563899999999997 0.003479769999999993 0.37392000000000003     C
C     0.46563899999999997  0.65696 0.37392000000000003     C
C     0.465639 0.0034789599999999476 0.6569610000000001     C
C     0.465639 0.373919 0.6569610000000001     C
C     0.465639 0.656959 0.0034809000000000003     C
H     0.4663729999999998 0.7836079999999999 0.29458800000000007     H
H     0.46637299999999987 0.29458899999999993 0.7836080000000001     H
H     0.4663739999999998 0.29458900000000005 0.9554290000000001     H
H     0.46637399999999996 0.955429 0.29458800000000007     H
H     0.4663740000000001 0.7836069999999999 0.9554290000000001     H
H     0.4663740000000001 0.9554279999999999 0.7836080000000001     H
O     0.469129 0.024709899999999965 0.35535000000000005     O
O     0.469129 0.35534999999999994 0.650809     O
O     0.469129 0.650809 0.35535000000000005     O
O     0.46912999999999994 0.35534999999999994 0.024709300000000003     O
O     0.46913099999999985 0.6508090000000001 0.024709300000000003     O
O     0.46913099999999996 0.024709399999999992 0.650809     O
C     0.47008799999999995 0.7598300000000001 0.3320910000000001     C
C     0.4700889999999998 0.33208999999999994 0.9379900000000001     C
C     0.47008899999999987  0.33209  0.75983     C
C     0.4700890000000001 0.937989 0.3320910000000001     C
C     0.47008999999999995 0.7598299999999998 0.9379900000000001     C
C     0.4700900000000001 0.9379890000000001  0.75983     C
H     0.4719387607358519 0.407499639250591 0.8679277243227317     H
H     0.47194324933917053 0.8679288743990614 0.7526275919502249     H
H     0.4719459915091492 0.7526302452243135 0.407495606685711     H
O     0.4778189999999999 0.6709599999999999 0.9830600000000003     O
O     0.4778189999999999 0.9830580000000001 0.6709600000000001     O
O     0.4778190000000001 0.368159 0.6709600000000001     O
O     0.4778199999999999 0.3681589999999999 0.9830600000000003     O
O     0.4778199999999999 0.9830600000000002 0.368159     O
O      0.47782  0.67096 0.368159     O
F     0.48355799999999993 0.328041 0.6214400000000001     F
C     0.48392899999999983 0.9542290000000001  0.73919     C
C     0.48392899999999994 0.32264899999999996  0.73919     C
C     0.48392900000000005  0.73919  0.32265     C
C     0.48392999999999986 0.954229  0.32265     C
C     0.48393000000000014 0.7391889999999999 0.9542290000000001     C
C     0.48393099999999983 0.322649 0.9542290000000001     C
O     0.4852189999999999  0.74576 0.9697190000000001     O
O     0.485219 0.9697200000000001 0.745761     O
O     0.4852199999999998 0.29929999999999995 0.745761     O
O     0.4852199999999998 0.29929999999999995 0.9697190000000001     O
O     0.48522099999999996 0.969719 0.29929900000000004     O
O     0.48522100000000007 0.745759 0.29929900000000004     O
O     0.4864490000000001 0.3383889999999999 0.9591300000000001     O
O     0.4864490000000001 0.9591290000000001 0.3383900000000001     O
O     0.4864499999999999 0.716029 0.9591300000000001     O
O      0.48645 0.716029 0.3383900000000001     O
O     0.48645099999999986 0.959129 0.716029     O
O     0.48645099999999997 0.33838999999999997 0.716029     O
Cr    0.49018899999999993 0.03563059999999997 0.3203500000000001    Cr
Cr    0.49018899999999993 0.3203500000000001 0.03562950000000001    Cr
Cr    0.490189 0.320349 0.6538300000000001    Cr
Cr    0.49018900000000004  0.65383 0.3203500000000001    Cr
Cr    0.4901900000000001 0.03562979999999996 0.6538300000000001    Cr
Cr    0.4901900000000002  0.65383 0.03562950000000001    Cr
F     0.49999899999999986 -5.551115123125783e-17 0.7495400000000001     F
Cr    0.49999899999999986 -1.3877787807814457e-17 0.28410100000000005    Cr
O     0.4999989999999999 -2.7755575615628914e-17 0.6837690000000001     O
O     0.4999989999999999  0.68377      0.0     O
Cr    0.4999990000000001   0.2841      0.0    Cr
Cr    0.4999999999999999 0.284099   0.7159    Cr
Cr    0.4999999999999999 0.715899 0.28410100000000005    Cr
O          0.5 -1.3877787807814457e-17  0.31623     O
O          0.5  0.68377  0.31623     O
O     0.5000009999999999 0.31622999999999996 0.6837690000000001     O
Cr    0.500001 -5.551115123125783e-17   0.7159    Cr
O     0.500001 0.316229      0.0     O
Cr    0.500001 0.715899      0.0    Cr
O     0.5043593631581685 0.7275995440179931 0.23201819506433866     O
O     0.5043603027699469 0.23201625138707324 0.03602098010907674     O
O     0.5043623644176314 0.0360188652968601 0.7276013491302549     O
O     0.5082552806592301 0.20729306952751583 0.7364893646140492     O
O     0.5082560589350175 0.047958623119468274 0.20729382271111912     O
O     0.5082610480016103 0.7364899256316298 0.04795911664452704     O
O     0.5096518061374419 0.3451342767912446 0.04800507345902681     O
O     0.5096520155309224 0.5972038221523696 0.34513672375849114     O
O     0.5096535679260755 0.04800802210205951 0.5972066948913697     O
Cr    0.5098099999999998 0.6796490000000001 0.9643690000000003    Cr
Cr    0.5098099999999999 0.346171 0.9643690000000003    Cr
Cr    0.5098099999999999 0.9643690000000001 0.34617000000000003    Cr
Cr     0.50981 0.6796490000000001 0.34617000000000003    Cr
Cr    0.5098100000000001  0.96437 0.679649    Cr
Cr    0.509811 0.346169 0.679649    Cr
H     0.512288222748499 0.7441857752772955 0.18618890579370956     H
H     0.5122890229424408 0.18618704744811357 0.05733604958140301     H
H     0.5122908362138351 0.05733380856783568 0.7441871131147735     H
O     0.5135499999999998 0.661609 0.28397000000000006     O
O     0.5135499999999998 0.6616090000000001 0.0408704     O
O      0.51355 0.04087009999999999 0.28397000000000006     O
O      0.51355 0.04087039999999997 0.661609     O
O     0.5135500000000001  0.28397 0.0408704     O
O     0.5135509999999999  0.28397 0.661609     O
O     0.5147789999999999 0.03028069999999998 0.2542400000000001     O
O     0.5147789999999999 0.254241 0.030279500000000004     O
O     0.514779 0.030280299999999954   0.7007     O
O     0.514779 0.700699 0.030279500000000004     O
O      0.51478  0.25424   0.7007     O
O     0.5147809999999999 0.700699 0.2542400000000001     O
C     0.5160699999999999 0.045769500000000005  0.26081     C
C     0.5160699999999999  0.26081 0.04577010000000001     C
C     0.5160699999999999 0.260811 0.6773490000000001     C
C      0.51607 0.6773500000000001 0.04577010000000001     C
C      0.51607 0.6773500000000001  0.26081     C
C     0.516071 0.045770499999999964 0.6773490000000001     C
F     0.5164390000000001 0.6719599999999999 0.37856100000000004     F
F     0.5164390000000002 0.933039 0.37856100000000004     F
F     0.5164399999999999  0.37856 0.9330390000000001     F
F     0.5164400000000001 0.671959 0.9330390000000001     F
O     0.5179794966335968 0.0593298490573905 0.35043457177156173     O
O     0.5179798403153195 0.3504328916444093 0.5722564352149347     O
O     0.5179807083925515 0.5722550019794305 0.059330465669700086     O
O     0.5221789999999998 0.016940200000000016 0.329041     O
O     0.522179 0.016940599999999917 0.6318400000000001     O
O     0.522179 0.631839 0.016940600000000004     O
O     0.5221790000000001  0.32904 0.016940600000000004     O
O     0.5221790000000001 0.6318389999999999 0.329041     O
O     0.5221799999999998 0.32903899999999997 0.6318400000000001     O
H     0.5252448309738983 0.3540261837666477 0.0694570011152725     H
H     0.5252472728218857 0.5512664996951283 0.3540300741506625     H
H     0.5252481230186019 0.0694588301379172 0.5512697660040352     H
O     0.5252763278066822 0.6128315008818052 0.051084003324366446     O
O     0.5252768569737472 0.05108430974919215 0.31080763153019     O
O     0.5252771961765685 0.31080622546248104 0.6128317320096502     O
O     0.5290873189547909 0.7535586063426916 0.9654109328853     O
O     0.5291083022964613 0.25188366578148325 0.7536073974546903     O
O     0.5291097519851248 0.9653986311859726 0.2518824165484347     O
C     0.5299089999999999 0.062009799999999976 0.24017000000000002     C
C     0.5299089999999999 0.24017100000000002 0.062009100000000004     C
C     0.5299089999999999 0.667911 0.062009100000000004     C
C     0.5299099999999999 0.06200919999999993 0.6679100000000001     C
C     0.5299099999999999  0.24017 0.6679100000000001     C
C     0.5299099999999999 0.6679090000000001 0.24017000000000002     C
O     0.5305962332260431 0.7351177233198111 0.1849296407167702     O
O     0.5305970253966334 0.18492777014130324 0.04935564589536212     O
O     0.5305988399897715 0.049353886328420554 0.7351183806175008     O
O     0.5308699999999997 0.9752900000000002 0.3491890000000001     O
O     0.5308699999999998 0.3491899999999999 0.9752890000000001     O
O      0.53087  0.64465 0.9752890000000001     O
O      0.53087 0.6446510000000001 0.3491890000000001     O
O      0.53087 0.975289 0.644649     O
O     0.5308700000000001  0.34919 0.644649     O
S     0.5310326579820442 0.7186916048193199 0.21508807306329503     S
S     0.5310334664591009 0.21508622044041298 0.035186414904761126     S
S     0.5310353639508868 0.03518493373251538 0.718692402446917     S
S     0.5310773508120087 0.21509581732313784 0.7186763708826964     S
S     0.5310776001756761 0.0351474974583198 0.21509727311260557     S
S     0.5310823645791961 0.718675151702212 0.03514895564587232     S
C     0.5343599999999998 0.6260800000000001 0.34304000000000007     C
C     0.5343599999999998  0.99652 0.34304000000000007     C
C      0.53436 0.34303899999999987 0.9965200000000001     C
C      0.53436 0.3430389999999999 0.6260790000000002     C
C      0.53436 0.626079 0.9965200000000001     C
C     0.5343600000000002 0.9965190000000002 0.6260790000000002     C
O     0.5345989999999999 0.274899 0.7183400000000001     O
O     0.534599 0.27489999999999987 0.9721590000000002     O
O     0.534599  0.71834   0.2749     O
O     0.5345990000000002 0.9721590000000001   0.2749     O
O     0.5345990000000002  0.97216 0.7183400000000001     O
O       0.5346  0.71834 0.9721590000000002     O
O     0.5346775158382433 0.01139598956114983 0.2373797442223861     O
O     0.5346780138876591 0.237377253859192 0.7165467491706748     O
O     0.5346839282162095 0.7165456679894958 0.011396039130421864     O
S     0.5347405630834243 0.32745890338251904 0.05167398355526658     S
S     0.5347409760096932 0.5861218706101959 0.32746131819098684     S
S     0.5347432682149975 0.051674917507098156 0.5861248044261788     S
S     0.5347627351214284 0.051679182000345755 0.32741207282544577     S
S     0.5347630863434965 0.32741062326280324 0.5861465187074986     S
S     0.5347631634958686 0.5861460971147595 0.05167902330788278     S
O     0.5374989999999997 0.696339 0.9492200000000001     O
O     0.5374989999999998 0.696341 0.3169390000000001     O
O     0.537499  0.31694 0.6963400000000001     O
O     0.5374999999999996 0.949219 0.6963400000000001     O
O     0.5374999999999999 0.31693999999999994 0.9492200000000001     O
O     0.5374999999999999 0.9492189999999999 0.3169390000000001     O
C     0.5380589999999998 0.216859 0.058660800000000006     C
C     0.5380589999999998 0.21685999999999997 0.6864200000000001     C
C     0.538059 0.05865909999999999 0.21686000000000002     C
C     0.538059 0.686419 0.21686000000000002     C
C     0.5380599999999999 0.05865999999999996 0.6864200000000001     C
C      0.53806 0.6864189999999999 0.058660800000000006     C
O     0.5385547477449946 0.2458036347095891 0.9902490242330995     O
O     0.538954283435213 0.3372683433487896 0.06882836050975309     O
O     0.5389563230117783 0.554943720216661 0.3372719273932805     O
O     0.5389580316780194 0.06882898064267709 0.5549470685250728     O
O     0.5392135588442952 0.7236811067003552 0.24625714149878866     O
O     0.5392136282434009 0.9908441429970619 0.7236883921689514     O
O     0.5411879824329495 0.595461982868823 0.29944616351444886     O
O     0.5411880827072384 0.29944360208785126 0.06390063660791939     O
O     0.5411921524742122 0.06390040804239136 0.5954659263831198     O
O     0.5424120511061943 0.7682860760547396 0.2322411570727907     O
O     0.5424175965071685 0.9570531005432583 0.7682905505354103     O
O     0.5425049739401501 0.23319534425372657 0.9550443949811238     O
C     0.5436689999999997  0.64041 0.0726506     C
C     0.5436689999999998 0.07264970000000004  0.64041     C
C     0.543669 0.07265059999999998 0.24326900000000004     C
C     0.543669  0.24327 0.0726506     C
C     0.5436699999999999  0.64041 0.24326900000000004     C
C      0.54367  0.24327  0.64041     C
H     0.5438269999999998 0.626369 0.26217300000000004     H
H     0.543827 0.0676303 0.26217300000000004     H
H     0.543827 0.262172 0.06763000000000001     H
H     0.543828 0.06762959999999998 0.626369     H
H     0.543828 0.26217200000000007 0.626369     H
H     0.543828 0.626369 0.06763000000000001     H
C     0.5475979999999999 0.7073400000000001 0.2907600000000001     C
C     0.5475989999999997 0.29075999999999996  0.70734     C
C     0.5475989999999997  0.70734 0.9542990000000002     C
C     0.547599 0.9542999999999999  0.70734     C
C     0.5475990000000001   0.9543 0.2907600000000001     C
C     0.5476000000000001 0.2907599999999999 0.9542990000000002     C
O     0.5521255886874046 0.07142303877891006 0.3083345564233342     O
O     0.5521263370102337 0.3083329549889192 0.5681174558252365     O
O     0.5521267335988475 0.5681179782560762 0.07142217842186209     O
C     0.552428  0.67921 0.0745704     C
C     0.552429 0.07456889999999997  0.67921     C
C     0.552429  0.19379  0.67921     C
C     0.5524290000000001 0.193791 0.0745704     C
C      0.55243 0.07457019999999999  0.19379     C
C     0.5524300000000001 0.6792090000000001  0.19379     C
O     0.5532826976326912 0.7200716559600246 0.2152525089512998     O
O     0.5532838865606148 0.21525022941075492 0.011392224248307952     O
O     0.553286226668267 0.011391113234533762 0.7200714172406676     O
H     0.5537637127713089 0.7802830331678667 0.9508560846617427     H
S     0.5538045395249133 0.23547964553270762 0.9687221514643273     S
H     0.5538323297025867 0.21506931606034785 0.780303549723538     H
H     0.553834775584762 0.9507925229697894 0.2150682168669151     H
S     0.5540552706449133 0.7408079690995011 0.9697314159871552     S
S     0.5540816185107191 0.23536356845898232 0.7408416401998195     S
S     0.5540831573479861 0.9697110944009295 0.23536287359906258     S
S     0.5540964013274304 0.7407936766680828 0.23535602351831048     S
S     0.5540991055816155 0.9697485714395027 0.7407980719705693     S
H     0.5541700366875646 0.07515503264446838 0.29048139572840714     H
H     0.554170721970217 0.5801952841864231 0.07515378189219622     H
H     0.554170885435703 0.2904798140386574 0.580194246033411     H
H     0.5551869999999999 0.07587769999999994 0.6939330000000001     H
H     0.555187 0.6939319999999999 0.07587820000000002     H
H     0.5551879999999999 0.175001 0.07587820000000002     H
H     0.555188 0.07587719999999999 0.175002     H
H     0.555188 0.1750009999999999 0.6939330000000001     H
H     0.5551880000000001 0.6939309999999999 0.175002     H
O     0.5561521904777187 0.18944684439958506 0.725801193720325     O
O     0.5561530494107231 0.028595269157520684 0.18944927616465781     O
O     0.5561586143546681 0.7257965320643899 0.028600427913756325     O
C     0.556649 0.22101099999999996 0.6327890000000002     C
C     0.5566490000000001  0.63279 0.22101000000000004     C
C     0.5566499999999999 0.08955020000000002 0.6327890000000002     C
C     0.5566499999999999 0.08955029999999999 0.22101000000000004     C
C     0.5566499999999999 0.22100900000000004 0.08955040000000002     C
C      0.55665 0.6327900000000001 0.08955040000000002     C
O     0.5573921520325253 0.7238053936888729 0.9948614950312374     O
O     0.5574193688010474 0.22388216999614408 0.7238533983528882     O
O     0.5574208810183906 0.994842977295036 0.22388162788748783     O
C     0.5583389999999997 0.6038809999999999 0.9964790000000002     C
C     0.5583399999999996 0.9964790000000001 0.6038800000000001     C
C     0.5583399999999997  0.60388   0.3413     C
C     0.5583399999999998 0.34129899999999996 0.6038800000000001     C
C     0.558341 0.3412999999999999 0.9964790000000002     C
C     0.558341 0.996479   0.3413     C
C     0.5602989999999998 0.33507999999999993  0.58338     C
C     0.5602989999999998 0.583379 0.3350810000000001     C
C     0.5602989999999999  0.33508 0.0212401     C
C     0.5602989999999999  0.58338 0.0212401     C
C     0.5602990000000001 0.021240599999999984 0.3350810000000001     C
C     0.5603000000000001 0.02123999999999998  0.58338     C
H     0.5613789999999999 0.10240199999999999 0.22310300000000002     H
H     0.5613799999999999 0.223103 0.10240200000000002     H
H      0.56138 0.22310399999999997 0.6131140000000002     H
H     0.5613809999999999 0.10240199999999999 0.6131140000000002     H
H     0.5613809999999999 0.6131139999999999 0.22310300000000002     H
H     0.561381 0.613113 0.10240200000000002     H
C     0.563078 0.08870050000000002   0.6523     C
C     0.5630789999999999 0.652299 0.08870060000000002     C
C     0.563079 0.08870000000000001 0.19592100000000004     C
C     0.563079 0.19592000000000004 0.08870060000000002     C
C     0.563079 0.19592000000000004   0.6523     C
C      0.56308 0.652299 0.19592100000000004     C
O     0.5650970214215071 0.7643179666177529 0.9598291478807678     O
O     0.5651591826213611 0.210730664156275 0.7643364572692367     O
O     0.5651614730561139 0.959771423595575 0.21072991011002898     O
H     0.5684103726232608 0.1961091000292357 0.723725074910802     H
H     0.5684108991822989 0.011751184160457978 0.19611247233127382     H
H     0.5684175498578038 0.7237192914917074 0.011756705344510964     H
H     0.5715491073352056 0.2039346986877657 0.9970919380830076     H
C     0.5718589999999999 0.27857899999999997 0.7116390000000001     C
C     0.571859 0.7116390000000001 0.2785790000000001     C
C      0.57186 0.7116399999999999 0.9379190000000001     C
C     0.571861 0.937919 0.7116390000000001     C
C     0.5718610000000001 0.2785789999999999 0.9379190000000001     C
C     0.5718610000000001  0.93792 0.2785790000000001     C
H     0.5725363372209346 0.724912808266275 0.20465236567166922     H
H     0.5725388748209986 0.9978933485395606 0.7249170146904301     H
O     0.5730422456225175 0.2058008379640875 0.9800608218527799     O
O     0.5736757538031533 0.7391117672284646 0.2059873003549893     O
O     0.5736798251752707 0.9812191594315923 0.7391147664367648     O
C     0.574098 0.10731999999999997 0.6465000000000001     C
C     0.5740989999999999 0.17207999999999996 0.6465000000000001     C
C       0.5741 0.17208099999999998 0.10731900000000001     C
C       0.5741 0.6464989999999999 0.10731900000000001     C
C       0.5741 0.6464990000000002  0.17208     C
C     0.5741000000000002 0.107319  0.17208     C
C     0.5778689999999997 0.7252890000000001 0.251289     C
C     0.5778689999999999 0.251289 0.7252900000000001     C
C     0.5778699999999999 0.25128999999999996 0.9455500000000001     C
C     0.5778699999999999 0.7252890000000001 0.9455500000000001     C
C     0.5778699999999999  0.94555 0.7252900000000001     C
C     0.5778699999999999 0.9455500000000001 0.251289     C
O     0.578658 0.12511999999999998 0.17238100000000003     O
O     0.5786589999999999  0.17238 0.12511900000000004     O
O     0.578659  0.62384 0.17238100000000003     O
O     0.5786599999999998 0.623841 0.12511900000000004     O
O      0.57866 0.12511999999999995 0.623839     O
O      0.57866 0.17238000000000003 0.623839     O
C     0.5815989999999999 0.9744590000000001 0.339741     C
C     0.581599 0.3397409999999999 0.9744590000000002     C
C     0.5815999999999998 0.3397389999999999 0.604199     C
C     0.5815999999999999  0.97446 0.604199     C
C       0.5816 0.6041990000000002 0.339741     C
C     0.5816010000000003 0.6041989999999999 0.9744590000000002     C
O     0.582058601663952 0.5743205759124363 0.09766888865073227     O
O     0.5820594072709049 0.09766528610529451 0.24595430963261777     O
O     0.5820602194884542 0.24595275506070405 0.5743218783029193     O
H     0.5821059999999999 0.957808 0.33855900000000005     H
H     0.582106 0.33855999999999997 0.621524     H
H     0.5821060000000002 0.3385599999999999 0.9578070000000001     H
H     0.5821069999999997 0.6215239999999999 0.33855900000000005     H
H     0.5821070000000002 0.6215249999999999 0.9578070000000001     H
H     0.5821080000000001 0.9578069999999999 0.621524     H
O     0.5821619883795643 0.09642713615226425 0.576758739918666     O
O     0.5822989999999999 0.15031899999999998  0.10384     O
O     0.5822990000000001 0.10383999999999999 0.15032000000000004     O
O     0.5822999999999998 0.6635390000000001 0.15032000000000004     O
O     0.5822999999999999 0.15031999999999998 0.6635400000000001     O
O     0.5822999999999999 0.663539  0.10384     O
O       0.5823 0.10384000000000002 0.6635400000000001     O
F     0.582369  0.58237 0.16763100000000003     F
C     0.5833789999999999 0.33508000000000004   0.5603     C
C     0.583379 0.021240599999999984 0.3350810000000001     C
C     0.583379   0.5603 0.3350810000000001     C
C     0.5833799999999999 0.021239499999999994   0.5603     C
C     0.5833799999999999  0.33508 0.0212401     C
C     0.5833809999999999 0.5602990000000001 0.0212401     C
O     0.5852828382823649 0.5917299608184567 0.22295511770581714     O
O     0.5852852849310723 0.22294893765569412 0.10003124745754224     O
H     0.585493 0.330612 0.0390286     H
H     0.5854930000000002 0.0390291 0.330611     H
H     0.585494 0.03902829999999996 0.5448660000000001     H
H     0.5854940000000001 0.3306109999999999 0.5448660000000001     H
H     0.5854940000000001 0.544866 0.0390286     H
H     0.5854940000000001 0.544866 0.330611     H
H     0.5867879999999999 0.31069399999999997 0.9164080000000001     H
H     0.586788 0.310694 0.6861100000000001     H
H     0.586788 0.6861090000000001 0.310695     H
H     0.586788 0.9164070000000001 0.6861100000000001     H
H     0.586788 0.9164080000000002 0.310695     H
H     0.5867880000000001 0.6861079999999999 0.9164080000000001     H
H     0.5879080465584241 0.10292738114182334 0.2031902858375463     H
H     0.5879098061253877 0.6059738984044089 0.1029283358767354     H
H     0.587910797887989 0.20318867975560195 0.6059750308106459     H
H     0.5897564351712805 0.10178846212700879 0.6071742352515582     H
O     0.5905938834010765 0.24373292702246585 0.12260312359633983     O
O     0.5905965957930117 0.5430642857775501 0.24373755665454647     O
C     0.5911489999999999  0.29037 0.9211890000000001     C
C     0.591149 0.921189 0.29037100000000005     C
C     0.591149  0.92119 0.6972890000000002     C
C     0.5911490000000001 0.6972900000000001 0.29037100000000005     C
C     0.5911499999999998 0.29037099999999993 0.6972890000000002     C
C     0.5911499999999998 0.697289 0.9211890000000001     C
H     0.5950464618297464 0.057606986866332976 0.6799224390604366     H
H     0.5950465618979776 0.6799220294733564 0.16742417500203124     H
H     0.5962251048881598 0.15216474182916234 0.0656845751119506     H
O     0.5977785023357246 0.16374320973982912 0.6975313413810477     O
O     0.5977787675519208 0.6975292008327516 0.04094290063891497     O
O     0.5977799759442034 0.04094248004821399 0.16374973500993856     O
O     0.5978820735026914 0.11388180902888834 0.197427612190856     O
O     0.5978845510720486 0.5908081345830826 0.11388209760754456     O
O     0.5978845765868112 0.19742604672996586 0.5908092329481404     O
O     0.5979588178771904 0.1370654445647096 0.2196628631446834     O
O     0.5979595497704029 0.21966087056245343 0.5453142039382087     O
O     0.5979610033633544 0.545312618900025 0.13706713280030586     O
S     0.599771623695132 0.1114201756489256 0.22389091827423402     S
S     0.5997725189882099 0.5649168684943129 0.11142188674052633     S
S     0.5997727618712956 0.22388952525563724 0.5649179695319472     S
S     0.5997853151750908 0.5648700329359061 0.2238876786350998     S
S     0.5997856813714876 0.22388322901436358 0.111457128908793     S
O     0.601027077992484 0.7186698651296304 0.1583850624510275     O
O     0.6010271042187071 0.021917749955551985 0.7186702362981328     O
O     0.60186368036788 0.1497532741779109 0.026323353262935112     O
C     0.6029799999999996 0.23637999999999992 0.7266990000000001     C
C     0.6029799999999997 0.23637999999999992 0.9339400000000001     C
C     0.6029799999999997 0.7266989999999999 0.9339400000000001     C
C     0.6029799999999997 0.7267000000000001 0.23638000000000003     C
C     0.6029799999999997 0.9339400000000001 0.23638000000000003     C
C     0.6029799999999998 0.9339389999999999 0.7266990000000001     C
H     0.603709827962895 0.5481173669281234 0.19908692373941106     H
H     0.6037106910029908 0.19908216671939705 0.14908580261598536     H
C     0.6038799999999998 0.34129999999999994  0.55834     C
C     0.6038799999999998 0.5583389999999999 0.9964790000000002     C
C     0.6038799999999999 0.9964790000000001  0.55834     C
C      0.60388 0.3412999999999999 0.9964790000000002     C
C     0.6038800000000001 0.5583399999999998   0.3413     C
C     0.6038800000000002 0.996479   0.3413     C
C     0.6041989999999997 0.5815999999999999 0.9744590000000002     C
C     0.6041989999999999  0.97446 0.5815990000000001     C
C     0.604199 0.9744590000000001 0.339741     C
C     0.6041990000000002 0.3397409999999999 0.9744590000000002     C
C     0.6041999999999997 0.5816000000000001 0.339741     C
C       0.6042 0.33974100000000007 0.5815990000000001     C
Cr    0.6042089999999999 0.6042089999999999 0.14579000000000003    Cr
Cr    0.604209 0.14578999999999998 0.604209    Cr
Cr     0.60421  0.14579 0.14579000000000003    Cr
O     0.6045835108290238 0.08581101259551235 0.6058910244646016     O
O     0.605078158857212 0.5644621059627564 0.195559121439277     O
O     0.6050805144913463 0.19555429245077682 0.13489984969812419     O
S     0.6060788470502628 0.07883647282981407 0.5829947045678734     S
F     0.607109 0.0963106 0.09630950000000002     F
O     0.6075419198472986 0.6807931652244675 0.14986743732282654     O
O     0.6075420343745076 0.06179710605190211 0.6807933721172477     O
H     0.608533 0.21578999999999998 0.7365870000000001     H
H     0.608534 0.7365860000000001 0.21579000000000004     H
H     0.6085349999999998 0.736586 0.9390890000000001     H
H     0.6085349999999998 0.9390879999999999 0.7365870000000001     H
H     0.6085349999999999 0.2157889999999999 0.9390890000000001     H
H     0.6085349999999999 0.9390890000000001 0.21579000000000004     H
Cr     0.60876  0.11382 0.11381900000000002    Cr
Cr     0.60876 0.11382000000000003 0.663599    Cr
Cr     0.60876 0.663601 0.11381900000000002    Cr
O     0.6116789992421792 0.13654944639934374 0.06585666245751982     O
O     0.6140592217033978 0.05068138739677386 0.591803261343974     O
C     0.6163189999999997   0.2751   0.6978     C
C     0.6163189999999997 0.697799 0.27510000000000007     C
C     0.6163189999999998 0.2750989999999999 0.9107800000000003     C
C     0.6163189999999998 0.6977990000000001 0.9107800000000003     C
C     0.616319 0.9107800000000003 0.27510000000000007     C
C     0.6163190000000001  0.91078   0.6978     C
O     0.6166893628441492 0.027850032898654765 0.1234783182565661     O
O     0.6166897072397363 0.731982631330905 0.027849949566453185     O
O     0.6166925495239353 0.12347297900129983 0.7319833592673818     O
S     0.6178189454883881 0.7050173075795552 0.13942495163906585     S
S     0.6178191812495246 0.037738374510265266 0.7050174226769804     S
S     0.6178416085866564 0.7050358423707879 0.03774753852298454     S
S     0.6178421906199368 0.03774726058708747 0.13937531999212457     S
S     0.6178429800054611 0.13937035588719515 0.7050369322285166     S
O     0.6207455437226752 0.6920142842894372 0.06679713019930776     O
O     0.6207461757385102 0.06679682744165782 0.12044330925385428     O
O     0.6207486477569774 0.12043747106602537 0.6920153422320751     O
O     0.6210421511920243 0.7173037789869714 0.11190203442166144     O
O     0.6210428119830153 0.04975152206494757 0.717303657732866     O
C     0.6211399999999997 0.714639 0.9149990000000001     C
C     0.6211399999999998 0.24922099999999991 0.9149990000000001     C
C     0.6211399999999998 0.24922099999999997 0.714639     C
C     0.6211399999999998 0.9149990000000001 0.714639     C
C      0.62114  0.71464 0.24922000000000002     C
C      0.62114 0.9149999999999999 0.24922000000000002     C
F     0.6214389999999999 0.06696019999999998 0.328041     F
F     0.621439 0.48356099999999996 0.06695960000000001     F
F      0.62144 0.32803999999999994 0.06695960000000001     F
H     0.6215229999999998 0.33856099999999995 0.582108     H
H     0.621523 0.9578069999999999 0.582108     H
H     0.6215239999999997 0.5821069999999999 0.33855900000000005     H
H     0.6215239999999999 0.957808 0.33855900000000005     H
H     0.621524 0.582106 0.9578070000000001     H
H     0.6215240000000002 0.3385599999999999 0.9578070000000001     H
S     0.6221495914365335 0.13173224512489876 0.03821592976793543     S
O     0.623838 0.12511999999999998 0.17238100000000003     O
O     0.6238389999999998 0.578659 0.12511900000000004     O
O     0.6238389999999999  0.17238 0.12511900000000004     O
O     0.6238389999999999 0.578659 0.17238100000000003     O
O     0.623839 0.12511999999999995 0.5786600000000001     O
O     0.623839 0.17237900000000006 0.5786600000000001     O
H     0.6240416962517464 0.7045657430058011 0.0685870494496722     H
H     0.6240417327898531 0.06858696149769553 0.10280588475473643     H
H     0.6240463297779002 0.102799852545815 0.7045664277978151     H
C     0.6260789999999999 0.534359 0.34304000000000007     C
C     0.626079 0.34304000000000007 0.534359     C
C     0.626079 0.534359 0.9965200000000001     C
C     0.626079 0.9965200000000001 0.534359     C
C     0.6260799999999997 0.34303899999999987 0.9965200000000001     C
C     0.6260799999999999  0.99652 0.34304000000000007     C
O     0.626328 0.12367099999999995 0.6263300000000002     O
O     0.6263290000000001  0.62633 0.12366900000000002     O
O      0.62633 0.12366900000000003 0.12366900000000002     O
H     0.6263679999999999 0.262172 0.06763000000000001     H
H     0.6263679999999999 0.26217299999999993 0.5438270000000001     H
H     0.626368 0.0676303 0.26217300000000004     H
H     0.626368 0.543827 0.26217300000000004     H
H     0.6263689999999997 0.06763019999999995 0.5438270000000001     H
H     0.6263689999999998 0.543827 0.06763000000000001     H
H     0.6308460551579959 0.37952860112740866 0.08559867191734923     H
H     0.6308481833829563 0.08559916910121862 0.4040240312001901     H
O     0.6316089999999999 0.0759505 0.12726900000000002     O
O     0.6316089999999999 0.07595069999999995 0.6651700000000002     O
O     0.6316089999999999  0.12727 0.07595030000000001     O
O     0.6316089999999999 0.665169 0.07595030000000001     O
O     0.6316100000000001 0.12726899999999994 0.6651700000000002     O
O     0.6316100000000001  0.66517 0.12726900000000002     O
O     0.6316176066370423 0.10373026696451443 0.04451076047516178     O
O     0.6318389999999999 0.016940200000000016 0.329041     O
O     0.631839 0.5221789999999998 0.329041     O
O     0.6318390000000002  0.32904 0.016940600000000004     O
O     0.6318390000000003 0.32904000000000005 0.5221800000000001     O
O      0.63184 0.016939999999999983 0.5221800000000001     O
O      0.63184 0.522179 0.016940600000000004     O
H     0.6319499999999998 0.28287599999999996 0.8996430000000001     H
H     0.6319509999999998 0.282876 0.6855290000000002     H
H     0.6319510000000002 0.899644 0.28287500000000004     H
H     0.6319519999999998 0.6855279999999999 0.8996430000000001     H
H     0.6319519999999998 0.685529 0.28287500000000004     H
H     0.631952 0.8996420000000002 0.6855290000000002     H
C     0.6327889999999999  0.55665 0.08955040000000002     C
C     0.632789 0.08955029999999999 0.22101000000000004     C
C     0.6327899999999999 0.22100900000000004 0.08955040000000002     C
C     0.6327899999999999  0.55665 0.22101000000000004     C
C      0.63279 0.08954999999999996  0.55665     C
C      0.63279 0.22100999999999998  0.55665     C
O     0.6366387304965757 0.368505799670427 0.4214740205496833     O
H     0.6394593390579042 0.7933768376604005 0.17957856753372975     H
H     0.6394599476026539 0.17957553624115602 0.8875849995932742     H
C     0.640409 0.543669 0.0726506     C
C      0.64041 0.07264969999999996 0.5436690000000001     C
C      0.64041 0.07265059999999998 0.24326900000000004     C
C      0.64041 0.24326999999999996 0.5436690000000001     C
C      0.64041  0.24327 0.0726506     C
C     0.6404100000000001 0.5436699999999999 0.24326900000000004     C
O     0.6416246862041997 0.8126641138222486 0.8778124683670772     O
O     0.6444469490259075 0.3549867562511568 0.05908907532379593     O
O     0.6444481116615184 0.05908934604443697 0.4414751657088037     O
O     0.6446489999999998 0.34918999999999994 0.5308700000000001     O
O     0.6446499999999997 0.530869 0.3491890000000001     O
O     0.6446499999999997 0.5308699999999998 0.9752890000000001     O
O     0.6446499999999997 0.9752900000000002 0.3491890000000001     O
O      0.64465 0.9752889999999999 0.5308700000000001     O
O     0.6446500000000001 0.3491899999999999 0.9752890000000001     O
O     0.6449730376093961 0.8350321431994485 0.15329537446724684     O
O     0.6449739999382201 0.15329313375736003 0.8666981253265734     O
C     0.6460989999999998 0.23421999999999998   0.7165     C
C     0.6460999999999999 0.9031789999999997   0.7165     C
C       0.6461 0.903179 0.23422000000000004     C
C     0.6461000000000001 0.7165009999999998 0.9031790000000001     C
C     0.6461000000000002 0.7164990000000001 0.23422000000000004     C
C     0.646101 0.2342200000000001 0.9031790000000001     C
C     0.6464989999999999  0.10732 0.5740990000000001     C
C     0.6464989999999999   0.5741 0.10731900000000001     C
C       0.6465 0.17207999999999998 0.5740990000000001     C
C       0.6465 0.17208099999999998 0.10731900000000001     C
C     0.6465000000000001 0.107319  0.17208     C
C     0.6465000000000002 0.574099  0.17208     C
O     0.6485352724725226 0.3802386158304297 0.0764753147432903     O
O     0.6485372695129225 0.07647519527170454 0.39474854057203035     O
C     0.6493089999999999 0.020390399999999975 0.6867100000000002     C
C     0.6493089999999999 0.6867099999999999 0.020390400000000003     C
C     0.6493089999999999  0.68671  0.14359     C
C     0.649309  0.14359 0.020390400000000003     C
C     0.6493090000000001 0.14358899999999997 0.6867100000000002     C
C      0.64931 0.0203898  0.14359     C
H     0.6493899999999997 0.15407199999999996 0.7150440000000001     H
H     0.6493899999999999 0.15407399999999988 0.9814910000000002     H
H     0.6493899999999999 0.715044 0.15407400000000002     H
H      0.64939 0.9814910000000001 0.15407400000000002     H
H     0.6493909999999997 0.9814909999999998 0.7150440000000001     H
H     0.6493910000000003 0.7150429999999999 0.9814910000000002     H
O     0.6506989999999999 0.21039999999999992 0.9110600000000001     O
O     0.6506989999999999 0.21040000000000003  0.72784     O
O     0.6506990000000001 0.7278389999999998 0.9110600000000001     O
O     0.6506990000000001  0.91106  0.72784     O
O     0.6506999999999998 0.7278389999999999 0.21040000000000003     O
O     0.6507000000000001 0.911059 0.21040000000000003     O
O     0.650809 0.024709800000000004 0.46913000000000005     O
O     0.6508090000000002 0.3553489999999999 0.46913000000000005     O
O     0.6508099999999999 0.35534999999999994 0.024709300000000003     O
O     0.6508099999999999 0.4691289999999999 0.35535000000000005     O
O     0.6508099999999999 0.46912899999999996 0.024709300000000003     O
O      0.65081 0.024709899999999965 0.35535000000000005     O
C     0.652299 0.08870039999999996 0.5630790000000001     C
C     0.652299  0.56308 0.08870060000000002     C
C     0.6522999999999999 0.19591999999999998 0.5630790000000001     C
C       0.6523 0.08870000000000001 0.19592100000000004     C
C       0.6523 0.19592000000000004 0.08870060000000002     C
C       0.6523 0.5630800000000001 0.19592100000000004     C
C     0.653609 0.12987100000000001 0.06290960000000001     C
C     0.6536099999999999 0.06290969999999993 0.6536100000000001     C
C     0.6536099999999999 0.12986899999999993 0.6536100000000001     C
C      0.65361 0.0629102 0.12986900000000004     C
C      0.65361  0.65361 0.06290960000000001     C
C     0.6536109999999999 0.6536090000000001 0.12986900000000004     C
O     0.6537501792950373 0.32861739160221076 0.9345281735971095     O
O     0.6537534735365184 0.6036335148169442 0.913905921706762     O
O     0.6537537858558229 0.9139033324043909 0.32870478647882456     O
O     0.6537547961422229 0.3287050858187003 0.603630808048085     O
Cr     0.65383 0.035629899999999964 0.4901890000000001    Cr
Cr     0.65383 0.03563059999999997 0.3203500000000001    Cr
Cr     0.65383 0.49018900000000004 0.03562950000000001    Cr
Cr    0.6538300000000001 0.320349 0.4901890000000001    Cr
Cr    0.6538300000000001 0.3203500000000001 0.03562950000000001    Cr
Cr    0.6538300000000002 0.49018899999999993 0.3203500000000001    Cr
O     0.6538907551343055 0.5829314757328158 0.3287916249974118     O
O     0.6538931488305957 0.9343841044333581 0.5829290522946644     O
H     0.6545196177546131 0.9511777128824687 0.32942162374436246     H
H     0.6545214031322963 0.5648773223152963 0.9511812246043726     H
H     0.6545236461680451 0.329416952732545 0.564874699256984     H
F     0.6554489999999997 0.7662890000000001 0.15625100000000003     F
F     0.655449 0.15624999999999994 0.766289     F
C     0.6569589999999998 0.46563999999999994 0.0034809000000000003     C
C     0.6569590000000001  0.46564 0.37392000000000003     C
C      0.65696 0.003479359999999987 0.46564000000000005     C
C      0.65696 0.003479769999999993 0.37392000000000003     C
C      0.65696 0.37391899999999995 0.46564000000000005     C
C      0.65696 0.3739199999999999 0.0034809000000000003     C
O     0.6584311114094048 0.7866254529726069 0.17234771504929336     O
O     0.6584317513044872 0.17234508803871762 0.8825951166340773     O
C     0.6586989999999999 0.0035199999999999954 0.4416590000000001     C
C     0.6586989999999999 0.39612099999999995 0.4416590000000001     C
C     0.6586989999999999  0.44166 0.0035198800000000004     C
C     0.6586999999999998 0.00352023999999998 0.39611900000000005     C
C     0.6586999999999998  0.39612 0.0035198800000000004     C
C     0.6586999999999998  0.44166 0.39611900000000005     C
C     0.6602589999999999 0.02553969999999997 0.41840000000000005     C
C     0.6602590000000002 0.39580000000000004 0.025539600000000003     C
C      0.66026 0.02553929999999996 0.39579900000000007     C
C      0.66026 0.39579999999999993 0.41840000000000005     C
C      0.66026 0.41840000000000005 0.025539600000000003     C
C     0.660261 0.41839899999999997 0.39579900000000007     C
H     0.6604741498920266 0.3078588624629065 0.4031697841043651     H
H     0.6604790541993577 0.4031556521640655 0.12849626809397977     H
H     0.6606190024113373 0.1285855838032987 0.3079709645083062     H
O     0.6609185789885659 0.11146060877220704 0.42097152503995094     O
O     0.6609193383312517 0.4209586804416552 0.3066577420535534     O
O     0.6609325881816747 0.3067771602318123 0.11154773060803191     O
C     0.6609980000000001 0.14842099999999997 0.6980200000000001     C
C     0.6609989999999999 0.6980200000000001 0.14842000000000002     C
C     0.6609999999999998 0.14841999999999994 0.9925590000000002     C
C        0.661 0.9925589999999999 0.14842000000000002     C
C     0.6610000000000001 0.9925589999999999 0.6980200000000001     C
C     0.661001 0.698019 0.9925590000000002     C
O     0.6610804891196997 0.09102376864195588 0.3066054492671705     O
O     0.6612167510195962 0.441573333289422 0.09089700232430548     O
O     0.6612211133412876 0.30629811457579115 0.4415849890999306     O
H     0.661439 0.417893 0.04219180000000001     H
H     0.6614390000000001 0.04219229999999996 0.37847500000000006     H
H     0.6614390000000001 0.41789299999999996 0.37847500000000006     H
O     0.6616089999999999  0.51355 0.0408704     O
O     0.661609 0.04087009999999999 0.28397000000000006     O
O     0.661609  0.28397 0.0408704     O
O     0.661609  0.51355 0.28397000000000006     O
O     0.6616090000000001 0.283971 0.5135500000000001     O
O     0.6616099999999999 0.04086929999999994 0.5135500000000001     O
C     0.6618389999999997 0.03424109999999997 0.6618390000000001     C
C     0.6618389999999998 0.6618389999999998  0.14208     C
C     0.661839 0.14208000000000004 0.6618390000000001     C
C     0.661839 0.6618400000000001 0.034239900000000004     C
C     0.6618390000000001 0.142081 0.034239900000000004     C
C      0.66184 0.0342392  0.14208     C
S     0.6622344785827178 0.36682926658505166 0.053827373990334965     S
S     0.6622356896210675 0.05382697976449474 0.4171071491947705     S
S     0.6622887537241975 0.36681272874301557 0.41709216806282895     S
O     0.662779 0.7076810000000001 0.8847390000000002     O
O     0.6627790000000001  0.88474 0.7076790000000001     O
O     0.6627799999999998 0.24480000000000002 0.8847390000000002     O
O     0.6627799999999998 0.24480099999999996 0.7076790000000001     O
O     0.6627799999999998 0.884739 0.24479900000000004     O
O     0.6627809999999998 0.7076789999999998 0.24479900000000004     O
O     0.6635380000000001 0.15032099999999995 0.5823000000000002     O
O     0.6635389999999997 0.582301 0.15032000000000004     O
O     0.6635389999999999   0.5823  0.10384     O
O     0.663539 0.10383999999999996 0.5823000000000002     O
O     0.6635409999999999 0.10383999999999999 0.15032000000000004     O
O     0.6635409999999999 0.15031899999999998  0.10384     O
Cr    0.663599 0.11381999999999998 0.6087600000000001    Cr
Cr    0.663599 0.6087599999999999 0.11381900000000002    Cr
Cr    0.6636010000000001  0.11382 0.11381900000000002    Cr
C     0.6649189999999999 0.9787590000000002 0.43970000000000004     C
C     0.664919 0.978759 0.4166210000000001     C
C     0.6649190000000001   0.4397 0.4166210000000001     C
C      0.66492 0.41661899999999996 0.9787590000000002     C
C      0.66492 0.4166190000000001 0.43970000000000004     C
C      0.66492   0.4397 0.9787590000000002     C
O     0.6651689999999997  0.63161 0.07595030000000001     O
O     0.6651699999999999  0.12727 0.07595030000000001     O
O      0.66517 0.07595039999999997  0.63161     O
O     0.6651709999999998 0.0759505 0.12726900000000002     O
O     0.6651709999999998 0.6316100000000001 0.12726900000000002     O
O     0.6651710000000001 0.12726900000000002  0.63161     O
C     0.6679090000000001  0.24017 0.5299100000000001     C
C     0.6679090000000001 0.529909 0.24017000000000002     C
C     0.6679099999999999 0.24017100000000002 0.062009100000000004     C
C      0.66791 0.062009799999999976 0.24017000000000002     C
C      0.66791 0.06201049999999997 0.5299100000000001     C
C      0.66791 0.529911 0.062009100000000004     C
S     0.6683683885202147 0.8121614941057532 0.15498186853713364     S
S     0.668369197461429 0.1549799593577495 0.8644868788628618     S
S     0.6684120418363328 0.8121552777809314 0.8644812283117491     S
O     0.66846817681298 0.33472823327306983 0.06322519180572005     O
O     0.6685180799414414 0.06309394871294108 0.43394537358100066     O
O     0.6685181815078787 0.43393374953963026 0.3344505529146676     O
O     0.6693132726733028 0.3206552442761327 0.3941911921773477     O
O     0.669321419590807 0.39417771693203274 0.11583828989414269     O
H     0.6693879999999996 0.45513299999999995 0.9609700000000001     H
H     0.669388 0.41450699999999996 0.45513300000000007     H
H     0.669388 0.4551339999999999 0.414506     H
H     0.669388 0.9609710000000001 0.45513300000000007     H
H     0.6693880000000001 0.9609710000000001 0.414506     H
H     0.6693890000000002 0.4145059999999999 0.9609700000000001     H
O     0.6695290512639129 0.11591227862513925 0.3207063327300941     O
O     0.6709599999999998 0.9830600000000002 0.368159     O
O     0.6709599999999999 0.4778189999999999 0.9830600000000003     O
O      0.67096 0.3681589999999999 0.9830600000000003     O
O      0.67096 0.3681599999999999 0.4778190000000001     O
O      0.67096 0.9830590000000001 0.4778190000000001     O
O     0.6709610000000001 0.477819 0.368159     O
O     0.6717557704596501 0.3484430185212605 0.40962670912173765     O
O     0.6717633948170019 0.4096124018024005 0.07017282116813192     O
O     0.6719015296104671 0.0702806410670333 0.34858864099937753     O
F     0.6719589999999998 0.9330400000000001 0.5164400000000001     F
F     0.6719590000000002 0.37855999999999995 0.5164400000000001     F
O     0.6726026606490411 0.9406937010435891 0.3285295511881254     O
O     0.6726043920050342 0.5581707217702087 0.9406968889089153     O
O     0.6726067102815273 0.3285245381611642 0.5581684487271131     O
H     0.6731869999999998 0.16418199999999994 0.8109060000000001     H
H     0.6731870000000002 0.851723 0.164181     H
H     0.6731880000000001 0.8517240000000001 0.8109060000000001     H
H     0.6739819975071762 0.07703498945139503 0.3890285118861098     H
H     0.6739948779431547 0.38901386738827154 0.35995644456850057     H
H     0.6742401200603924 0.35995609892494923 0.07724082632348833     H
O     0.6746780000000003 0.7125599999999999 0.9435400000000003     O
O     0.6746789999999998 0.16921899999999995 0.9435400000000003     O
O     0.6746789999999999 0.9435399999999998 0.7125590000000002     O
O     0.6746790000000001 0.943539 0.16921900000000004     O
O     0.6746799999999997 0.16922099999999998 0.7125590000000002     O
O     0.6746800000000001  0.71256 0.16921900000000004     O
O     0.6746990000000002 0.1839389999999999 0.8736200000000002     O
O     0.6746999999999999 0.7677379999999998 0.8736200000000002     O
O     0.6746999999999999 0.873619  0.18394     O
O     0.6746999999999999 0.8736190000000001 0.7677390000000001     O
O       0.6747 0.18393999999999988 0.7677390000000001     O
O       0.6747 0.7677390000000001  0.18394     O
S     0.6753703564079155 0.3214384717399076 0.4164575641116587     S
S     0.6753731020481551 0.4164468004276932 0.08673260333509551     S
S     0.6753811439660438 0.08669114742312092 0.4164459421016444     S
S     0.6753837620134847 0.4164356463055622 0.32148707684299554     S
S     0.6754128745204208 0.0868193478410073 0.32158841716790626     S
S     0.6754160071356768 0.32160130493950273 0.08678988994277624     S
O     0.6754644433712758 0.09240546608132541 0.3877515378392536     O
O     0.6754760272870668 0.38773806961517737 0.3443804452495719     O
O     0.6757098467726501 0.3443337807466584 0.09257318606551898     O
C     0.677349 0.2608099999999999  0.51607     C
C     0.677349  0.26081 0.04577010000000001     C
C     0.677349  0.51607  0.26081     C
C     0.6773499999999999 0.045769500000000005  0.26081     C
C      0.67735 0.045769699999999996  0.51607     C
C      0.67735  0.51607 0.04577010000000001     C
O     0.6776805997473392 0.8305769477564487 0.8622443922998911     O
Cr    0.6781189999999999 0.176281 0.7387990000000001    Cr
Cr    0.678119 0.7387989999999999 0.9068000000000003    Cr
Cr    0.6781199999999998 0.17628099999999997 0.9068000000000003    Cr
Cr     0.67812 0.906799 0.7387990000000001    Cr
Cr     0.67812   0.9068 0.17628100000000002    Cr
Cr    0.6781200000000001 0.738798 0.17628100000000002    Cr
O     0.6783649427595405 0.3712111419817223 0.3857255334214819     O
S     0.6786492913728192 0.3246468939925323 0.9138550158069348     S
S     0.6787688245493869 0.9137997594084174 0.3246778505162614     S
S     0.678769124730325 0.582749968347704 0.913802039214203     S
S     0.67877079329858 0.3246760187723452 0.5827478393717874     S
S     0.6788096473956936 0.5827398289011861 0.32468842271213744     S
S     0.6788120233717359 0.9137601825545544 0.5827380489911984     S
C     0.6792080000000003  0.55243  0.19379     C
C     0.679209 0.07457019999999999  0.19379     C
C     0.679209 0.1937899999999999  0.55243     C
C     0.6792090000000001 0.193791 0.0745704     C
C     0.6792100000000001 0.07456949999999996  0.55243     C
C     0.6792100000000001  0.55243 0.0745704     C
Cr    0.6796489999999998 0.346171 0.9643690000000003    Cr
Cr    0.6796489999999998  0.50981 0.9643690000000003    Cr
Cr    0.679649 0.9643689999999999 0.5098100000000001    Cr
Cr    0.6796499999999996  0.34617 0.5098100000000001    Cr
Cr    0.6796499999999996 0.9643690000000001 0.34617000000000003    Cr
Cr     0.67965  0.50981 0.34617000000000003    Cr
O     0.6798320179455403 0.34427907109985023 0.43077125551297496     O
C     0.679969 0.810149 0.8326700000000001     C
C     0.6799699999999996 0.832669  0.17721     C
C     0.6799699999999999 0.17720999999999998 0.8101490000000001     C
C     0.6799699999999999 0.810149  0.17721     C
C     0.6799699999999999 0.8326689999999999 0.8101490000000001     C
C      0.67997 0.177209 0.8326700000000001     C
O     0.6816726356429866 0.3359980915043189 0.8862124441059268     O
O     0.6818942942582366 0.5959960148411896 0.33600376730989734     O
O     0.6818968252522496 0.8861039448842397 0.5959936819856534     O
O     0.6830589999999999 0.05078019999999997 0.4625000000000001     O
O     0.6830599999999998 0.303659 0.4625000000000001     O
O      0.68306 0.050780699999999984 0.30365900000000007     O
O      0.68306  0.30366 0.050779000000000005     O
O      0.68306 0.462499 0.050779000000000005     O
O      0.68306 0.46250099999999994 0.30365900000000007     O
O     0.6837689999999998 -2.7755575615628914e-17 0.5000000000000001     O
O     0.683769 -1.3877787807814457e-17  0.31623     O
O     0.683769 0.316229      0.0     O
O     0.683769  0.31623 0.5000000000000001     O
O     0.6837690000000001      0.5  0.31623     O
O     0.6837699999999998      0.5      0.0     O
H     0.6847669999999999 0.7690620000000001 0.8095390000000001     H
H     0.6847679999999997 0.8095390000000001 0.7690630000000002     H
H     0.6847679999999999 0.23662899999999987 0.7690630000000002     H
H     0.684768 0.809539 0.23662900000000003     H
H     0.6847680000000003 0.23662899999999998 0.8095390000000001     H
H     0.6847680000000003 0.769062 0.23662900000000003     H
H     0.6849224565900232 0.8143218030712653 0.08722377985218324     H
H     0.6849269093603472 0.08721760152944003 0.9135276997101432     H
H     0.6849279943371447 0.9135273118593462 0.8143261290370405     H
H     0.6855279999999999 0.28287599999999996 0.8996430000000001     H
H     0.6855279999999999 0.899644 0.28287500000000004     H
H     0.6855289999999998 0.6319509999999999 0.8996430000000001     H
H     0.6855289999999999 0.899643 0.631951     H
H      0.68553 0.28287500000000004 0.631951     H
H      0.68553 0.631951 0.28287500000000004     H
O     0.6856799134427208 0.9141627227975847 0.10394624618246373     O
O     0.6856823366560381 0.10393949992823864 0.7962105386015725     O
O     0.6856832269179438 0.7962144875936699 0.9141611288335832     O
O     0.686001639066917 0.7828699522831004 0.8788400495194573     O
C     0.6864189999999999 0.05865969999999998 0.5380600000000001     C
C     0.6864189999999999 0.5380590000000001 0.058660800000000006     C
C     0.6864199999999999 0.5380589999999998 0.21686000000000002     C
C      0.68642 0.05865909999999999 0.21686000000000002     C
C      0.68642 0.216859 0.058660800000000006     C
C      0.68642 0.21686000000000002 0.5380600000000001     C
O     0.6864293244968143 0.12426547726172471 0.9139340669287764     O
O     0.6864297049755046 0.7753645473248711 0.12427086846475269     O
O     0.6864302187292968 0.9139338981806642 0.7753694545280575     O
C     0.6867089999999998 0.14359100000000002 0.6493090000000001     C
C     0.6867089999999998 0.6493090000000001  0.14359     C
C     0.686709  0.14359 0.020390400000000003     C
C     0.6867099999999999 0.020389799999999986 0.6493090000000001     C
C     0.6867099999999999 0.649309 0.020390400000000003     C
C      0.68671 0.0203898  0.14359     C
C     0.6867989999999999 0.2193799999999999 0.7856600000000001     C
C     0.6867989999999999 0.7856599999999999 0.21938100000000002     C
C     0.6867989999999999 0.8081589999999998 0.7856600000000001     C
C     0.686799 0.785659 0.8081590000000001     C
C     0.6867999999999997 0.808159 0.21938100000000002     C
C     0.6868009999999998 0.219379 0.8081590000000001     C
C     0.6872489999999998 0.6872499999999999  0.14589     C
C     0.687249 0.1458899999999999 0.9796100000000001     C
C     0.687249 0.687249 0.9796100000000001     C
C     0.687249 0.9796090000000001 0.6872500000000001     C
C     0.687249 0.9796099999999999  0.14589     C
C     0.6872499999999998 0.14589000000000002 0.6872500000000001     C
C     0.6889689999999999 0.19630999999999993 0.7630310000000001     C
C     0.6889699999999999 0.19630999999999998 0.8516900000000001     C
C     0.6889699999999999 0.851688 0.7630310000000001     C
C      0.68897 0.7630289999999998 0.19631000000000004     C
C     0.6889700000000001 0.763029 0.8516900000000001     C
C     0.6889700000000002 0.8516899999999998 0.19631000000000004     C
O     0.6891862217629542 0.3526047150250331 0.052633416168337506     O
O     0.6891877613377657 0.052631895811801555 0.40557434098346024     O
C     0.6895879999999999  0.82921 0.7855100000000002     C
C     0.6895889999999999 0.19569099999999995 0.8292090000000001     C
C     0.6895889999999999 0.829208 0.195691     C
C     0.6895890000000001 0.7855099999999999 0.195691     C
C     0.6895890000000001  0.78551 0.8292090000000001     C
C     0.6895899999999999 0.195689 0.7855100000000002     C
O     0.6902145090416918 0.8060463071875001 0.13254252586525986     O
O     0.6902157677969583 0.13254080942096003 0.8711945524477972     O
H     0.6939309999999999 0.175001 0.07587820000000002     H
H     0.6939319999999999 0.555187 0.175002     H
H     0.693932 0.07587719999999999 0.175002     H
H     0.693932 0.17500100000000002 0.555188     H
H     0.693932 0.555188 0.07587820000000002     H
H     0.693933 0.07587730000000004 0.555188     H
O     0.6943489999999999 0.21518899999999996 0.8495500000000001     O
O     0.6943489999999999 0.740909 0.8495500000000001     O
O     0.6943489999999999 0.8495490000000001 0.21519000000000002     O
O     0.6943499999999999 0.21518999999999994 0.7409090000000002     O
O      0.69435 0.740909 0.21519000000000002     O
O      0.69435 0.8495489999999999 0.7409090000000002     O
C     0.6946989999999997 0.15849999999999997 0.6946990000000001     C
C     0.6946989999999997 0.694699 0.9521000000000001     C
C     0.6946989999999998 0.694699 0.15850000000000003     C
C     0.694699 0.15849999999999997 0.9521000000000001     C
C     0.694699 0.9520999999999998 0.15850000000000003     C
C     0.6946999999999999 0.952099 0.6946990000000001     C
O     0.6950009323751546 0.8169658320291936 0.09297021932439785     O
O     0.6950051228363887 0.09296551483480686 0.8950588797944122     O
O     0.6950062860345629 0.8950585227878247 0.8169686907115975     O
O     0.6956856687556415 0.8930941567083718 0.3396316401275114     O
O     0.6956859063161773 0.5715841630111755 0.8930970001597593     O
O     0.6956879428442784 0.3396297046278496 0.5715819919170396     O
O     0.6960645887852521 0.33476060395925356 0.9173501354307058     O
O     0.6963059034997772 0.1456879378983612 0.777463265542748     O
O     0.6963081223379094 0.8805383298012729 0.14569251344965914     O
O     0.6963230219109383 0.5517323767765131 0.3346809654294041     O
O     0.6963265395454904 0.9172621053672999 0.5517307449243783     O
O      0.69634 0.31693999999999994 0.5374990000000001     O
O      0.69634 0.31693999999999994 0.9492200000000001     O
O      0.69634 0.5374999999999999 0.9492200000000001     O
O      0.69634 0.9492189999999999 0.3169390000000001     O
O     0.696341 0.5374989999999998 0.3169390000000001     O
O     0.6963410000000001 0.949219 0.5374990000000001     O
H     0.6963484806389991 0.3597062326032687 0.3842085928559281     H
C     0.6972889999999999 0.921189 0.29037100000000005     C
C     0.697289  0.29037 0.9211890000000001     C
C     0.697289 0.5911490000000001 0.29037100000000005     C
C     0.697289  0.59115 0.9211890000000001     C
C     0.6972899999999997 0.921189 0.5911490000000001     C
C      0.69729 0.290369 0.5911490000000001     C
H     0.6976179999999998 0.030639 0.14111100000000001     H
H     0.6976179999999998  0.14111 0.630632     H
H     0.697618 0.14111100000000001 0.030638200000000004     H
H     0.697618 0.630631 0.030638200000000004     H
H     0.6976180000000001 0.030637899999999996 0.630632     H
H     0.6976180000000001  0.63063 0.14111100000000001     H
C     0.6977989999999997 0.9107800000000003 0.27510000000000007     C
C     0.6977989999999998 0.2750989999999999 0.9107800000000003     C
C     0.6977989999999998  0.61632 0.27510000000000007     C
C     0.697799 0.275099 0.6163200000000001     C
C     0.697799 0.910779 0.6163200000000001     C
C     0.6977990000000001 0.6163190000000001 0.9107800000000003     C
C     0.6980189999999997 0.6609999999999998 0.9925590000000002     C
C     0.698019 0.9925599999999999 0.660999     C
C     0.6980199999999999 0.14841999999999994 0.9925590000000002     C
C     0.6980199999999999 0.9925589999999999 0.14842000000000002     C
C      0.69802 0.660999 0.14842000000000002     C
C     0.6980200000000001  0.14842 0.660999     C
H     0.7000100207892219 0.7851292991054281 0.8793384250426484     H
F      0.70027 0.09630939999999999 0.6071090000000001     F
O     0.7003541770101467 0.8645580533387567 0.799324614442355     O
Cr    0.7006789999999999  0.86668 0.7006800000000001    Cr
Cr    0.700679 0.231959 0.7006800000000001    Cr
Cr    0.700679 0.23195900000000003 0.8666800000000002    Cr
Cr    0.7006790000000003 0.7006799999999999 0.23195900000000003    Cr
Cr    0.7006799999999997 0.7006799999999999 0.8666800000000002    Cr
Cr     0.70068 0.8666789999999999 0.23195900000000003    Cr
O     0.7006989999999998 0.030279399999999984 0.5147800000000001     O
O     0.7006989999999998 0.03028069999999998 0.2542400000000001     O
O     0.7006990000000001 0.5147799999999999 0.030279500000000004     O
O     0.7006999999999999 0.254241 0.030279500000000004     O
O     0.7006999999999999 0.5147799999999999 0.2542400000000001     O
O     0.700701 0.254239 0.5147800000000001     O
S     0.7018424774074715 0.7904619726795298 0.11759541970525121     S
S     0.7018434023332245 0.1175918747715749 0.8900982960838696     S
S     0.701844455903719 0.890098109660318 0.790464574419064     S
S     0.7018565528714321 0.8900515476311281 0.11762599274787144     S
S     0.7018568736331303 0.1176209845058348 0.7904663632554307     S
S     0.7018585809923582 0.7904683944488691 0.8900503223398576     S
H     0.703208389873001 0.12687504600578642 0.8182041736413906     H
H     0.7032098307467548 0.8517072721289187 0.12688071207985313     H
H     0.7032134760141737 0.818204393509639 0.8517056700105509     H
O     0.7033283778852794 0.8669095288042459 0.11102873358112496     O
O     0.7033286733027744 0.11102280191608815 0.818734125535237     O
O     0.703333110996841 0.8187349353578011 0.866907701066873     O
O     0.7039689999999998 0.19610899999999992 0.7039700000000001     O
O     0.7039689999999998  0.19611 0.8959500000000001     O
O     0.703969  0.70397  0.19611     O
O     0.7039690000000002 0.895949  0.19611     O
O     0.7039699999999998  0.89595 0.7039700000000001     O
O      0.70397 0.7039689999999998 0.8959500000000001     O
H     0.7054109999999999 0.5336249999999999 0.216393     H
H     0.705411 0.0445705 0.216393     H
H     0.705411 0.21639199999999995 0.5336260000000002     H
H     0.705411 0.216392 0.0445715     H
H     0.7054119999999999 0.533625 0.0445715     H
H     0.705412 0.044570099999999974 0.5336260000000002     H
O     0.7060545841444732 0.9349902118251653 0.4811295407200912     O
O     0.7060554580789464 0.37782408616049346 0.9349902219054707     O
O     0.7060567865445242 0.48113714272361763 0.37782020484888834     O
H     0.7062896972871802 0.34308404017701893 0.8998044260626992     H
F     0.7064199999999999 0.7064189999999999 0.8314400000000001     F
H     0.7066111519448446 0.5507375023274218 0.3429314756115666     H
H     0.7066150565149634 0.8997184288951623 0.5507357066392591     H
C     0.7073389999999998 0.5475999999999999 0.9542990000000002     C
C     0.7073389999999998 0.9542989999999999 0.5476010000000001     C
C     0.7073390000000003  0.29076 0.5476010000000001     C
C      0.70734   0.9543 0.2907600000000001     C
C     0.7073400000000001 0.5476000000000001 0.2907600000000001     C
C     0.7073410000000001 0.2907599999999999 0.9542990000000002     C
O     0.7076789999999997 0.24479999999999996 0.6627800000000001     O
O     0.7076799999999998 0.24480000000000002 0.8847390000000002     O
O     0.7076799999999999 0.6627789999999999 0.24479900000000004     O
O     0.7076799999999999 0.8847390000000002 0.6627800000000001     O
O      0.70768 0.6627789999999999 0.8847390000000002     O
O      0.70768 0.884739 0.24479900000000004     O
O     0.7084289999999998 0.14376999999999995 0.9033090000000003     O
O     0.7084289999999998 0.14376999999999998 0.7444900000000001     O
O     0.7084289999999999  0.74449 0.14376900000000004     O
O     0.7084289999999999  0.90331 0.14376900000000004     O
O     0.7084299999999999 0.903309 0.7444900000000001     O
O     0.7084300000000001 0.744489 0.9033090000000003     O
C     0.709239 0.045699699999999954 0.4524000000000001     C
C     0.709239 0.04570010000000001 0.29266100000000006     C
C     0.7092390000000001 0.45239999999999997 0.29266100000000006     C
C      0.70924 0.292659 0.045700000000000005     C
C     0.7092400000000001 0.2926599999999999 0.4524000000000001     C
C     0.7092400000000001 0.452399 0.045700000000000005     C
C     0.7096289999999998 0.302709 0.40885000000000005     C
C     0.7096290000000001 0.0788103 0.40885000000000005     C
C     0.7096299999999998 0.408849 0.30271000000000003     C
C      0.70963 0.07881059999999997 0.30271000000000003     C
C      0.70963 0.30271000000000003 0.07880950000000002     C
C      0.70963 0.4088490000000001 0.07880950000000002     C
O     0.7102380702718089 0.9608641281219256 0.37619769042125045     O
O     0.7111415890644368 0.45167963753699264 0.9627666207440986     O
O     0.7111417718457749 0.3744089578873065 0.45168190403918446     O
C     0.7116389999999999  0.57186 0.2785790000000001     C
C     0.7116389999999999 0.9379199999999999 0.5718600000000001     C
C     0.711639 0.5718599999999999 0.9379190000000001     C
C     0.7116390000000001  0.27858 0.5718600000000001     C
C     0.7116399999999999 0.2785789999999999 0.9379190000000001     C
C     0.7116399999999999  0.93792 0.2785790000000001     C
O     0.7125589999999999 0.16921899999999995 0.9435400000000003     O
O     0.7125589999999999  0.16922 0.6746790000000001     O
O     0.712559 0.943539 0.6746790000000001     O
O     0.7125590000000002 0.674679 0.9435400000000003     O
O     0.7125590000000002  0.67468 0.16921900000000004     O
O      0.71256 0.943539 0.16921900000000004     O
O     0.714571899849453 0.475073837334178 0.9145761950155729     O
O     0.7145728207559809 0.39577495534879314 0.4750754915737225     O
C     0.7146389999999999 0.24922099999999994 0.6211400000000001     C
C     0.714639 0.24922099999999991 0.9149990000000001     C
C     0.714639 0.621139 0.24922000000000002     C
C     0.714639 0.9149999999999999 0.24922000000000002     C
C     0.7146399999999997  0.62114 0.9149990000000001     C
C      0.71464 0.9149989999999998 0.6211400000000001     C
H     0.7150439999999999 0.649391 0.15407400000000002     H
H     0.7150439999999999 0.9814910000000001 0.15407400000000002     H
H     0.715044 0.15407399999999988 0.9814910000000002     H
H     0.715044 0.15407399999999993 0.649391     H
H     0.7150440000000001 0.981491 0.649391     H
H     0.7150440000000002 0.6493899999999999 0.9814910000000002     H
O     0.7155479204173303 0.9123214566871918 0.39475214080582743     O
Cr    0.7158989999999998 -2.7755575615628914e-17 0.5000000000000001    Cr
Cr    0.7158989999999998 0.284099 0.5000000000000001    Cr
Cr    0.7158989999999998      0.5      0.0    Cr
Cr    0.715899 0.49999899999999997 0.28410100000000005    Cr
Cr      0.7159 -1.3877787807814457e-17 0.28410100000000005    Cr
Cr    0.7159000000000001   0.2841      0.0    Cr
O     0.7160280000000001 0.4864509999999999 0.3383900000000001     O
O     0.7160289999999998 0.3383889999999999 0.9591300000000001     O
O     0.7160299999999997 0.4864500000000001 0.9591300000000001     O
O     0.7160299999999998 0.33838899999999994 0.486449     O
O     0.7160299999999999 0.9591290000000001 0.3383900000000001     O
O     0.7160299999999999 0.9591299999999999 0.486449     O
C     0.716499 0.6460999999999999 0.9031790000000001     C
C     0.7164999999999999 0.903179 0.646099     C
C       0.7165 0.903179 0.23422000000000004     C
C     0.7165000000000001 0.2342200000000001 0.9031790000000001     C
C     0.7165000000000001   0.6461 0.23422000000000004     C
C     0.716501 0.23421999999999998 0.646099     C
H     0.7171229999999998 0.10035699999999999  0.31447     H
H     0.717123 0.31447099999999995 0.10035600000000001     H
H     0.7171240000000001 0.314471 0.36804800000000004     H
H     0.7171240000000002 0.368048  0.31447     H
H     0.7171249999999999 0.10035699999999999 0.36804800000000004     H
H     0.717125 0.36804800000000004 0.10035600000000001     H
O     0.7183389999999998 0.27489999999999987 0.9721590000000002     O
O     0.718339   0.5346   0.2749     O
O     0.718339 0.9721590000000001   0.2749     O
O      0.71834 0.2748999999999999 0.534599     O
O      0.71834   0.5346 0.9721590000000002     O
O     0.7183409999999997 0.972159 0.534599     O
C     0.7214189999999998 0.06208029999999998 0.28835900000000003     C
C     0.7214189999999999 0.288361 0.062079300000000004     C
C     0.7214199999999998  0.42814 0.062079300000000004     C
C      0.72142 0.06207940000000001 0.42813900000000005     C
C      0.72142  0.28836 0.42813900000000005     C
C      0.72142 0.42813999999999997 0.28835900000000003     C
H     0.7216707404847649 0.8978427203872186 0.46912473356316997     H
H     0.7216725522476127 0.4113595006043864 0.8978424424824778     H
H     0.7216731797768201 0.4691312287652607 0.41135656395416503     H
O     0.7221226292715607 0.4313443822073145 0.39070294245064047     O
O     0.7221263593659144 0.9558318370618255 0.4313367573742489     O
O     0.7221284776392999 0.39070259416934916 0.9558314630728146     O
C     0.7248989999999998 0.08921949999999998 0.38368100000000005     C
C     0.724899   0.3022 0.38368100000000005     C
C     0.7248999999999999  0.38368 0.302199     C
C       0.7249  0.38368 0.089219     C
C     0.7249000000000001 0.08921959999999998 0.302199     C
C     0.7249000000000001 0.302201 0.089219     C
O     0.7250999999999999 0.027840199999999996 0.281661     O
O     0.7250999999999999  0.28166 0.46540000000000004     O
O       0.7251 0.027840399999999987 0.46540000000000004     O
O       0.7251 0.4653999999999999 0.281661     O
O     0.725101  0.28166 0.027839400000000004     O
O     0.725101   0.4654 0.027839400000000004     O
C     0.7252889999999999  0.25129 0.5778700000000001     C
C      0.72529 0.25128999999999996 0.9455500000000001     C
C      0.72529 0.5778699999999999 0.9455500000000001     C
C      0.72529  0.57787 0.251289     C
C      0.72529 0.9455500000000001 0.251289     C
C     0.7252900000000001 0.945549 0.5778700000000001     C
S     0.7253693890621574 0.9332619885063531 0.38461794384717757     S
S     0.7254085817554583 0.4553802577055989 0.384162892445848     S
S     0.7254088016394223 0.9350506288309722 0.4553740260280928     S
S     0.7254103173881109 0.3841642184796973 0.9350504472226924     S
S     0.725416735935482 0.455330373111092 0.9350904974756352     S
S     0.7254170877071608 0.38415966150047764 0.4553318603989716     S
C     0.7266989999999997 0.23637999999999992 0.9339400000000001     C
C     0.7266989999999997 0.9339400000000001 0.23638000000000003     C
C       0.7267 0.236381 0.6029790000000002     C
C       0.7267  0.60298 0.9339400000000001     C
C     0.7267009999999998 0.6029790000000002 0.23638000000000003     C
C     0.726701 0.933939 0.6029790000000002     C
O     0.7278390000000001 0.21039999999999998 0.6507000000000001     O
O     0.7278399999999999 0.21039999999999992 0.9110600000000001     O
O     0.7278399999999999   0.6507 0.21040000000000003     O
O      0.72784 0.9110589999999998 0.6507000000000001     O
O     0.7278400000000002 0.650699 0.9110600000000001     O
O     0.727841 0.911059 0.21040000000000003     O
O     0.7295883717092545 0.33635231216114625 0.23302361811094285     O
O     0.7295894179412111 0.20103468146847847 0.33635299799640056     O
H     0.7299671751033792 0.9461172462421286 0.40742207475788655     H
O     0.730466055073112 0.9082815672734229 0.452044863016433     O
O     0.7304664453165459 0.4520508799118457 0.40920358595384654     O
O     0.7304681584726811 0.40920486446171506 0.9082812023828661     O
H     0.7310872860527432 0.4050384946190656 0.41461136653849306     H
H     0.7310888238093511 0.4146095106497231 0.949261060990919     H
C     0.7333590000000001 0.13491999999999987 0.8983590000000001     C
C     0.7333590000000001  0.73336 0.134919     C
C     0.7333590000000001  0.89836 0.134919     C
C     0.7333599999999999 0.898361 0.733359     C
C      0.73336 0.13491899999999998 0.733359     C
C     0.7333609999999999 0.7333589999999999 0.8983590000000001     C
O     0.7342935089434015 0.8218996878062623 0.7012106675822121     O
O     0.7342944791349172 0.24259351963368192 0.8218935709862589     O
O     0.7342948745829715 0.7012104274540077 0.24259859311156168     O
O     0.7343594271807294 0.9288074908991999 0.4075428623380239     O
H     0.7343989999999998 0.959947   0.5635     H
H     0.7343989999999998 0.959948 0.24215300000000003     H
H     0.734399 0.24215199999999995   0.5635     H
H     0.734399 0.563499 0.24215300000000003     H
H     0.7343999999999999 0.563499 0.9599470000000001     H
H     0.7344000000000002 0.24215199999999987 0.9599470000000001     H
O     0.7347545402431163 0.4063270324573961 0.42722156201947453     O
O     0.7347555361250753 0.42722010181850184 0.9316952427305433     O
C     0.7354390000000001 0.7746990000000001 0.101301     C
C     0.7354390000000001  0.88856 0.101301     C
C     0.7354399999999996 0.10129999999999995 0.8885590000000001     C
C     0.7354399999999999 0.10129899999999992 0.7746990000000001     C
C     0.7354409999999998 0.774699 0.8885590000000001     C
C     0.735441 0.8885589999999999 0.7746990000000001     C
H     0.7365849999999999 0.9390890000000001 0.21579000000000004     H
H     0.736585 0.6085349999999999 0.9390890000000001     H
H     0.7365859999999997 0.2157889999999999 0.9390890000000001     H
H     0.7365859999999997 0.9390890000000001 0.6085340000000001     H
H     0.736586 0.21578999999999998 0.6085340000000001     H
H     0.736586 0.608534 0.21579000000000004     H
O     0.7374907321049915 0.21468946447179232 0.24668347908878663     O
Cr    0.7387989999999997 0.17628099999999997 0.9068000000000003    Cr
Cr    0.7387990000000001   0.9068 0.17628100000000002    Cr
Cr    0.7387999999999998 0.678119 0.9068000000000003    Cr
Cr      0.7388 0.17627999999999994 0.6781190000000001    Cr
Cr      0.7388  0.67812 0.17628100000000002    Cr
Cr      0.7388 0.9067999999999999 0.6781190000000001    Cr
C     0.7391899999999998 0.322649 0.9542290000000001     C
C     0.7391899999999998 0.4839289999999999 0.9542290000000001     C
C     0.7391899999999998 0.48392999999999997  0.32265     C
C     0.7391899999999999 0.954229  0.32265     C
C     0.7391899999999999 0.954229 0.48392900000000005     C
C     0.7391900000000001 0.32264899999999996 0.48392900000000005     C
O     0.7393641619815079 0.17585866442916748 0.24124971237451373     O
O     0.7409089999999998  0.69435 0.8495500000000001     O
O     0.7409089999999999 0.849549  0.69435     O
O     0.740909 0.21518899999999996 0.8495500000000001     O
O     0.740909 0.8495490000000001 0.21519000000000002     O
O     0.7409100000000001 0.21519099999999997  0.69435     O
O     0.7409100000000002  0.69435 0.21519000000000002     O
H     0.7418479999999997 0.875729 0.07152410000000001     H
H     0.7418480000000001 0.07152390000000003 0.8757290000000001     H
H     0.7418489999999999 0.8108960000000001 0.07152410000000001     H
H     0.741849 0.875729 0.8108960000000001     H
H     0.7418490000000002 0.07152379999999997 0.8108960000000001     H
H     0.7418490000000002 0.810897 0.8757290000000001     H
O     0.7421510305527184 0.2527612630508749 0.7083331834412612     O
O     0.7421522603073809 0.7083386894002855 0.7967472391601217     O
O     0.7421539202230996 0.7967476201102803 0.2527654939103339     O
O     0.7444889999999997 0.14376999999999995 0.9033090000000003     O
O     0.7444889999999998  0.90331 0.14376900000000004     O
O     0.7444890000000001 0.9033100000000001 0.7084300000000001     O
O     0.7444899999999999 0.143769 0.7084300000000001     O
O      0.74449 0.708429 0.14376900000000004     O
O     0.7444900000000001 0.708429 0.9033090000000003     O
O     0.7457599999999998 0.29929999999999995 0.9697190000000001     O
O     0.7457599999999998 0.485219 0.9697190000000001     O
O     0.7457599999999999 0.29929999999999995 0.48521900000000007     O
O     0.7457599999999999 0.48521999999999993 0.29929900000000004     O
O      0.74576  0.96972 0.48521900000000007     O
O     0.7457609999999997 0.969719 0.29929900000000004     O
C     0.7470179999999997  0.74702 0.8958800000000002     C
C     0.7470189999999999 0.1100799999999999 0.8958800000000002     C
C     0.7470189999999999  0.89588 0.7470200000000001     C
C     0.747019  0.89588 0.11007900000000001     C
C      0.74702 0.11007899999999998 0.7470200000000001     C
C     0.7470210000000003  0.74702 0.11007900000000001     C
H     0.7476322698447453 0.34881908736684303 0.24896231414975625     H
H     0.7476334991982402 0.15458516169040334 0.3488225891081304     H
O     0.7479511283063487 0.6659924872141751 0.835553728154483     O
O     0.7479547200851764 0.8355558172221673 0.25050056042040725     O
O     0.747954999881769 0.2504954356339404 0.6659882833487708     O
C     0.748709 0.054448999999999984 0.27471000000000007     C
C     0.748709  0.05445 0.42213000000000006     C
C      0.74871 0.422129 0.27471000000000007     C
C     0.7487100000000001 0.274709 0.42213000000000006     C
C     0.7487100000000001  0.27471 0.054449000000000004     C
C     0.7487100000000001 0.4221289999999999 0.054449000000000004     C
H     0.7489404266317916 0.7755340511744142 0.7135171643056241     H
H     0.7489447101620849 0.7135185838240292 0.2620066282471607     H
H     0.7489453271065833 0.26200148291678005 0.7755275756283025     H
F     0.7495400000000001      0.5 0.250459     F
C     0.7507589999999997 0.790279 0.0791193     C
C     0.7507589999999997  0.87984 0.0791193     C
C     0.750759 0.07911989999999997 0.7902790000000001     C
C     0.750759 0.0791209 0.8798390000000003     C
C     0.7507600000000001 0.790279 0.8798390000000003     C
C     0.7507600000000001 0.879839 0.7902790000000001     C
C      0.75078 0.08499939999999997 0.37886100000000006     C
C      0.75078 0.08499999999999998 0.28536000000000006     C
C      0.75078  0.28536 0.08499950000000002     C
C      0.75078 0.37885899999999995 0.28536000000000006     C
C     0.7507800000000001  0.28536 0.37886100000000006     C
C     0.750781 0.37885899999999995 0.08499950000000002     C
O     0.7511012406949028 0.2912053133591017 0.2615369999671135     O
O     0.751102120934254 0.1961520735318569 0.2912075364259444     O
S     0.7514349909528932 0.3166579361354528 0.24221110670631066     S
S     0.7514359954416612 0.18969368220408483 0.316659504534908     S
S     0.751446922749569 0.18970936016210593 0.24223053554985444     S
O     0.7525426568288083 0.9514973781031499 0.8757471078694917     O
O     0.7525432880580025 0.9202077944137823 0.9515022787924711     O
O     0.7547385026974283 0.8613733727100519 0.9743634033111117     O
O     0.7551990000000001 0.2923200000000001 0.11526000000000002     O
O     0.7551999999999999 0.115259 0.33722100000000005     O
O       0.7552 0.11525899999999999  0.29232     O
O       0.7552  0.33722  0.29232     O
O     0.7552000000000001  0.29232 0.33722100000000005     O
O     0.7552000000000002 0.33721999999999996 0.11526000000000002     O
C     0.756729 0.4563289999999998 0.9273500000000001     C
C     0.756729  0.92735 0.45632900000000004     C
C     0.7567299999999998 0.927349 0.359589     C
C     0.7567299999999999 0.359589 0.9273500000000001     C
C     0.7567299999999999 0.45633099999999993 0.359589     C
C      0.75673 0.3595900000000001 0.45632900000000004     C
H     0.7570322088105836 0.9935961748193192 0.849724672900295     H
H     0.7570356518802346 0.899643198649285 0.993599710355484     H
H     0.757848 0.04005159999999999 0.43650000000000005     H
H     0.757848 0.2655989999999999 0.43650000000000005     H
H     0.757848 0.43650000000000005 0.0400518     H
H     0.7578480000000001 0.04005170000000001 0.26559900000000003     H
H     0.7578480000000001 0.265599 0.0400518     H
H     0.7578480000000001 0.43649999999999994 0.26559900000000003     H
O     0.7578913017512876 0.3303242439656895 0.25393718160464923     O
O     0.7578924501910763 0.15784506004606685 0.33032780390042904     O
S     0.7581227288717306 0.8096093738774683 0.6833439841346977     S
S     0.758123111176299 0.2489220630848492 0.8096043290131628     S
S     0.7581247640814738 0.683344080927394 0.2489251724354325     S
S     0.7581422075544877 0.683297395290621 0.8096235736729261     S
S     0.758143347235235 0.24893326246002068 0.6832934112222838     S
S     0.7581448977556575 0.8096248829300801 0.24893685425048395     S
C     0.7598289999999999 0.33208999999999994 0.9379900000000001     C
C     0.7598289999999999 0.47008999999999984 0.9379900000000001     C
C     0.759829 0.937989 0.3320910000000001     C
C     0.7598290000000001 0.9379900000000001 0.47008900000000003     C
C      0.75983 0.470089 0.3320910000000001     C
C     0.7598309999999999  0.33209 0.47008900000000003     C
F      0.76019 0.861849 0.8618500000000002     F
O     0.7617715374609378 0.7782848528215914 0.6960028414361272     O
O     0.7617748917069466 0.26393563277008125 0.7782790232570438     O
O     0.7617756470345716 0.6960041639282155 0.2639392986225556     O
H     0.7622641051576534 0.17986748780994463 0.27424454422442296     H
O     0.7624372722480681 0.2644998129437213 0.8170372832951073     O
O     0.7624396241770003 0.8170433045483358 0.6560182159187369     O
O     0.7624417244802761 0.6560185933406083 0.264501337553386     O
C     0.7630289999999998  0.19631 0.6889690000000002     C
C     0.7630289999999998 0.8516899999999998 0.19631000000000004     C
C     0.7630289999999998 0.8516899999999998 0.6889690000000002     C
C     0.763029 0.19630999999999998 0.8516900000000001     C
C     0.7630290000000001 0.688969 0.19631000000000004     C
C     0.7630290000000002 0.6889689999999999 0.8516900000000001     C
H      0.76337 0.230937 0.315232     H
H     0.7633700000000001 0.230939 0.19045900000000002     H
H     0.7633700000000001 0.315232 0.19045900000000002     H
C     0.763619 0.0660603 0.27329900000000007     C
C     0.7636190000000002 0.06605989999999998 0.39701900000000007     C
C     0.7636190000000002   0.2733 0.06605910000000001     C
C     0.7636199999999999 0.39701900000000007 0.27329900000000007     C
C      0.76362   0.2733 0.39701900000000007     C
C      0.76362 0.397019 0.06605910000000001     C
O     0.7645554495927497 0.16935571809404631 0.26544827065560306     O
C     0.765779 0.09681959999999999   0.2835     C
C     0.765779 0.09682009999999998 0.35390000000000005     C
C     0.765779   0.2835 0.0968201     C
C     0.7657799999999999 0.353899   0.2835     C
C      0.76578   0.3539 0.0968201     C
C     0.7657800000000001 0.2834999999999999 0.35390000000000005     C
F     0.7662889999999998  0.15625 0.9220100000000002     F
F     0.7662889999999999  0.92201 0.15625100000000003     F
F     0.766289 0.9220089999999999  0.65545     F
O     0.7677389999999997 0.18394099999999997   0.6747     O
O     0.767739 0.1839389999999999 0.8736200000000002     O
O     0.767739 0.873619  0.18394     O
O     0.767739 0.8736199999999998   0.6747     O
O     0.7677399999999999 0.6746989999999999 0.8736200000000002     O
O     0.7677400000000001 0.6746990000000002  0.18394     O
Cr    0.7680399999999997 0.2993189999999999 0.29932000000000003    Cr
Cr     0.76804 0.13332099999999997 0.29932000000000003    Cr
Cr     0.76804 0.29931899999999995 0.133321    Cr
O     0.773286735267088 0.6663178222099495 0.7897932565496286     O
O     0.7732874696322676 0.27059905021203645 0.6663126201218752     O
O     0.7732914147472382 0.7897961903167049 0.2706006827924975     O
H     0.7742266052424129 0.6483205129128073 0.8008145065213189     H
H     0.7742291090100102 0.27663286323593644 0.6483151045034282     H
H     0.7742324736875275 0.8008184489024341 0.2766347173291402     H
O     0.7742642581596875 0.9849849014889338 0.8515148417341084     O
O     0.7742675202599609 0.8892324917614376 0.9849878892523533     O
C     0.774699 0.7354399999999999 0.8885590000000001     C
C     0.774699 0.8885609999999997 0.7354390000000001     C
C     0.7746990000000001  0.88856 0.101301     C
C     0.7746999999999999 0.10129999999999995 0.8885590000000001     C
C       0.7747 0.735439 0.101301     C
C     0.7747009999999999 0.10129899999999992 0.7354390000000001     C
H     0.776896 0.386886 0.43861900000000004     H
H     0.7768969999999996 0.38688599999999995 0.8975970000000001     H
H     0.7768969999999997 0.8975980000000001 0.43861900000000004     H
H     0.776897 0.4386189999999999 0.386885     H
H     0.776897 0.8975970000000002 0.386885     H
H     0.7768970000000001  0.43862 0.8975970000000001     H
O     0.7777600346658367 0.8908351147988043 0.9313491268180227     O
C     0.7778489999999998 0.06751039999999997 0.7778490000000001     C
C     0.7778489999999999  0.77785 0.06750920000000002     C
C     0.7778490000000002 0.06751009999999996 0.8767890000000002     C
C     0.7778490000000002 0.8767899999999998 0.06750920000000002     C
C     0.7778499999999999 0.8767909999999999 0.7778490000000001     C
C     0.7778510000000001 0.777849 0.8767890000000002     C
S     0.7779711860534706 0.9536619373038735 0.8667546246585597     S
S     0.7779725072438777 0.9016080479660267 0.9536654487708389     S
S     0.7780061892287201 0.8667730196730162 0.9536373224666483     S
C     0.7789879999999999  0.44335 0.9104500000000001     C
C     0.7789889999999998 0.367209 0.9104500000000001     C
C     0.7789899999999996 0.9104490000000001 0.36721000000000004     C
C     0.7789899999999998 0.9104490000000001 0.44334900000000005     C
C      0.77899 0.44334899999999994 0.36721000000000004     C
C     0.7789900000000001 0.36721000000000004 0.44334900000000005     C
C     0.780619 0.19184000000000004 0.21434000000000003     C
C     0.780619 0.3131989999999999 0.21434000000000003     C
C     0.7806200000000001 0.191841 0.31319900000000006     C
C     0.7806200000000001  0.21434 0.191839     C
C     0.7806200000000001  0.21434 0.31319900000000006     C
C     0.7806200000000001 0.31320099999999995 0.191839     C
C     0.7831389999999999 0.3135800000000001 0.9413400000000001     C
C     0.7831399999999997 0.941339 0.31357900000000005     C
C     0.7831400000000001 0.461939 0.31357900000000005     C
C     0.7831400000000001 0.4619399999999999 0.9413400000000001     C
C     0.7831400000000001 0.9413389999999999  0.46194     C
C     0.7831400000000002 0.31357899999999994  0.46194     C
H     0.7836069999999998 0.955429 0.29458800000000007     H
H     0.7836069999999999 0.294589 0.46637400000000007     H
H     0.7836069999999999 0.29458900000000005 0.9554290000000001     H
H     0.7836070000000002 0.466374 0.9554290000000001     H
H     0.7836079999999999 0.9554279999999999 0.46637400000000007     H
H     0.783608 0.4663729999999999 0.29458800000000007     H
H     0.7838659999999996 0.8895330000000002 0.7154770000000001     H
H     0.7838659999999998 0.11112300000000003 0.7154770000000001     H
H     0.7838669999999999 0.7154769999999999 0.889532     H
H     0.7838670000000001 0.7154769999999999 0.11112200000000001     H
H     0.7838679999999998 0.11112299999999997 0.889532     H
H     0.783868 0.889533 0.11112200000000001     H
H     0.7842089999999999 0.39146499999999995 0.26341400000000004     H
H     0.784209 0.263415 0.06090990000000001     H
H     0.7842099999999999 0.060910099999999995 0.26341400000000004     H
H     0.7842099999999999 0.060910399999999976 0.391465     H
H     0.7842100000000001 0.263413 0.391465     H
H     0.784211 0.391465 0.06090990000000001     H
O     0.7844680000000002  0.86079 0.037810500000000004     O
O     0.7844689999999999 0.03780889999999992 0.8607900000000002     O
O     0.7844689999999999 0.8169299999999999 0.8607900000000002     O
O     0.7844690000000001 0.860789 0.8169300000000002     O
O     0.7844699999999998 0.03780959999999994 0.8169300000000002     O
O      0.78447  0.81693 0.037810500000000004     O
O     0.7848089999999999  0.25909 0.30565100000000006     O
O     0.7848089999999999 0.3056499999999999 0.259089     O
O     0.7848090000000001  0.30565 0.15045100000000003     O
O     0.7848099999999998 0.259089 0.15045100000000003     O
O      0.78481 0.150449 0.30565100000000006     O
O      0.78481  0.15045 0.259089     O
C     0.7855089999999998 0.829208 0.689591     C
C     0.7855089999999999 0.19569099999999995 0.8292090000000001     C
C     0.7855089999999999 0.829208 0.195691     C
C      0.78551 0.6895889999999999 0.8292090000000001     C
C     0.7855100000000002  0.19569 0.689591     C
C     0.7855100000000002 0.6895889999999999 0.195691     C
C     0.7856589999999999  0.80816 0.6868000000000001     C
C     0.785659 0.6867999999999999 0.8081590000000001     C
C     0.7856599999999998 0.21937899999999996 0.6868000000000001     C
C     0.7856599999999999 0.219379 0.8081590000000001     C
C     0.7856599999999999 0.6867989999999999 0.21938100000000002     C
C     0.7856599999999999 0.808159 0.21938100000000002     C
H     0.786892 0.8553049999999999 0.908357     H
H     0.786892 0.9494430000000001 0.908357     H
H     0.7868929999999997 0.908356 0.8553060000000001     H
O     0.7895989999999999  0.27216 0.08894030000000001     O
O     0.7895989999999999 0.349299 0.08894030000000001     O
O     0.789599 0.08893969999999998 0.34930000000000005     O
O     0.789599 0.0889408 0.27215900000000004     O
O       0.7896 0.27215999999999996 0.34930000000000005     O
O       0.7896   0.3493 0.27215900000000004     O
C     0.7902779999999998 0.0791209 0.8798390000000003     C
C     0.7902789999999997 0.879839 0.7507600000000001     C
C     0.790279 0.750759 0.8798390000000003     C
C     0.790279  0.87984 0.0791193     C
C     0.7902799999999999 0.07911989999999991 0.7507600000000001     C
C      0.79028 0.7507599999999999 0.0791193     C
O     0.7921984209631845 0.9444239345334215 0.8837917035695156     O
O     0.7921994651626735 0.8795814243423857 0.944427940335394     O
C     0.7937379999999999 0.04792049999999992 0.8646000000000001     C
C     0.7937379999999999 0.7937399999999998 0.8646000000000001     C
C     0.7937389999999999 0.8646000000000001 0.7937390000000001     C
C     0.793739 0.864599 0.04791990000000001     C
C     0.7937399999999999 0.793739 0.04791990000000001     C
C      0.79374 0.04791949999999995 0.7937390000000001     C
Cr    0.794109 0.01042999999999994 0.8477300000000001    Cr
Cr     0.79411 0.847729 0.010429100000000002    Cr
Cr    0.7941100000000001 0.847729 0.8477300000000001    Cr
O     0.7955230644448016 0.8642307631129201 0.968000281363935     O
C     0.7991289999999998 0.9418690000000001 0.8395500000000001     C
C     0.7991290000000002 0.8395489999999999 0.9418700000000001     C
C     0.7991299999999999  0.83955 0.9194490000000001     C
C     0.7991299999999999 0.9194489999999997 0.8395500000000001     C
C     0.7991300000000001 0.919449 0.9418700000000001     C
C     0.799131 0.9418689999999998 0.9194490000000001     C
O     0.8011299999999997 0.838149 0.9814890000000001     O
O     0.8011299999999997  0.83815 0.8792290000000001     O
O     0.8011299999999997 0.879229 0.9814890000000001     O
O     0.8011299999999997  0.98149 0.8792290000000001     O
O     0.8011299999999998 0.8792300000000001 0.838149     O
O      0.80113 0.9814899999999999 0.838149     O
C     0.8036889999999999 0.23696900000000004 0.14831100000000003     C
C     0.803689  0.14831 0.23697000000000001     C
C     0.8036899999999999 0.311029 0.14831100000000003     C
C     0.8036899999999999 0.311029 0.23697000000000001     C
C      0.80369 0.14830899999999997  0.31103     C
C      0.80369 0.23697000000000001  0.31103     C
H     0.8037178094492814 0.8776554690732079 0.9562924677736846     H
O     0.8038889999999999 0.10404999999999999 0.29603100000000004     O
O     0.8038889999999999  0.29603 0.29603100000000004     O
O     0.8038890000000001 0.296029 0.10405100000000002     O
C     0.8040790000000001 0.4369200000000001 0.34770000000000006     C
C     0.8040799999999999   0.3477 0.43691900000000006     C
C     0.8040800000000001 0.34769899999999987 0.9113000000000001     C
C     0.8040800000000002 0.9112999999999999 0.34770000000000006     C
C     0.8040800000000004 0.43691899999999995 0.9113000000000001     C
C     0.8040810000000002 0.911299 0.43691900000000006     C
C     0.804308  0.21449 0.3104100000000001     C
C     0.804309  0.17079 0.21449100000000001     C
C     0.804309 0.31040999999999996 0.17079000000000003     C
C     0.8043090000000002 0.310409 0.21449100000000001     C
C     0.8043090000000003 0.17078999999999997 0.3104100000000001     C
C      0.80431 0.214489 0.17079000000000003     C
C     0.8062089999999997  0.32079 0.9254300000000001     C
C     0.8062089999999997 0.4475699999999999 0.9254300000000001     C
C     0.8062089999999997 0.9254290000000001 0.447571     C
C     0.806209 0.320789 0.447571     C
C     0.806209  0.44757 0.32079100000000005     C
C     0.8062099999999999  0.92543 0.32079100000000005     C
C     0.8081599999999998 0.2193799999999999 0.7856600000000001     C
C     0.8081599999999998 0.6867989999999999 0.7856600000000001     C
C      0.80816 0.21937899999999996 0.6868000000000001     C
C      0.80816 0.7856599999999999 0.21938100000000002     C
C      0.80816  0.78566 0.6868000000000001     C
C     0.8081600000000001 0.6867989999999999 0.21938100000000002     C
H     0.8089457553327523 0.01541842153179851 0.2842234530008827     H
H     0.8089462143779125 0.28422176249050723 0.3914121430526303     H
H     0.8095379999999998 0.6847689999999999 0.7690630000000002     H
H     0.8095379999999999 0.769062 0.6847690000000001     H
H     0.8095389999999999 0.23662899999999987 0.7690630000000002     H
H     0.809539 0.23662899999999992 0.6847690000000001     H
H     0.8095390000000002 0.684769 0.23662900000000003     H
H     0.8095390000000002 0.769062 0.23662900000000003     H
C     0.8101499999999998 0.832669  0.17721     C
C     0.8101499999999999 0.17720999999999998 0.6799700000000001     C
C     0.8101499999999999 0.8326689999999999 0.6799700000000001     C
C     0.8101500000000001 0.177209 0.8326700000000001     C
C     0.8101500000000001  0.67997 0.8326700000000001     C
C     0.8101509999999998 0.679969  0.17721     C
H     0.8108959999999997 0.875729 0.07152410000000001     H
H     0.8108959999999998 0.07152439999999993 0.7418490000000001     H
H     0.8108969999999995 0.875729 0.7418490000000001     H
H     0.8108969999999996 0.7418490000000001 0.07152410000000001     H
H     0.8108969999999998 0.07152390000000003 0.8757290000000001     H
H     0.8108969999999998 0.7418480000000001 0.8757290000000001     H
H     0.810905 0.673187 0.164181     H
H     0.8109059999999998 0.1641809999999999 0.8517230000000001     H
H     0.8109059999999999 0.16418099999999997 0.6731880000000001     H
H     0.8109060000000001 0.851723 0.164181     H
H     0.8109060000000001 0.8517249999999998 0.6731880000000001     H
H     0.8109069999999999 0.673187 0.8517230000000001     H
O     0.8143756408326781 0.280743177892408 0.03125237315240177     O
O     0.816058  0.23226  0.12638     O
O     0.8160590000000001 0.12637999999999996 0.23225900000000002     O
O     0.8160599999999998 0.32530000000000003  0.12638     O
O     0.8160599999999999 0.23225899999999994 0.32530000000000003     O
O     0.8160599999999999 0.3252999999999999 0.23225900000000002     O
O      0.81606  0.12638 0.32530000000000003     O
C     0.8161389999999995 0.8161399999999999 0.8906900000000001     C
C     0.8161389999999997 0.816139 0.9770300000000001     C
C     0.8161399999999996 0.9770299999999996 0.8906900000000001     C
C     0.8161399999999999 0.8906889999999998 0.9770300000000001     C
C     0.8161399999999999  0.89069 0.816139     C
C     0.8161399999999999 0.9770299999999998 0.816139     C
C     0.816799 0.9116599999999999 0.8167990000000002     C
C       0.8168 0.8167999999999997 0.9116590000000001     C
C       0.8168   0.8168 0.9547390000000001     C
C       0.8168 0.9547389999999998 0.8167990000000002     C
C     0.8168009999999999 0.954739 0.9116590000000001     C
C     0.8168010000000001 0.911659 0.9547390000000001     C
O     0.8169289999999998  0.78447 0.8607900000000002     O
O     0.816929 0.03780889999999992 0.8607900000000002     O
O     0.8169290000000001 0.8607889999999999 0.7844690000000001     O
O     0.8169290000000002  0.86079 0.037810500000000004     O
O     0.8169299999999998 0.03781040000000002 0.7844690000000001     O
O     0.8169299999999999  0.78447 0.037810500000000004     O
O     0.821589579632861 0.27572238947793637 0.3529264933881515     O
O     0.8215898943730198 0.04976001253935167 0.27572292188647146     O
C     0.822789 0.189851  0.32003     C
C     0.8227890000000001 0.16732999999999998  0.32003     C
C     0.8227890000000001 0.320029 0.167331     C
C     0.8227890000000001 0.32003099999999995 0.189849     C
C     0.8227899999999999 0.189849 0.167331     C
C     0.8227900000000001  0.16733 0.189849     C
Cr    0.823718  0.32188 0.09320080000000001    Cr
Cr    0.823719 0.09319929999999997 0.32188000000000005    Cr
Cr    0.823719 0.321881 0.26120000000000004    Cr
Cr    0.8237199999999999 0.09320029999999997 0.26120000000000004    Cr
Cr     0.82372 0.261199 0.09320080000000001    Cr
Cr     0.82372 0.261199 0.32188000000000005    Cr
H     0.8249979999999998 0.44481100000000007 0.9241230000000001     H
H     0.8249979999999998 0.924122 0.44481100000000007     H
H     0.8249979999999999 0.9241230000000001 0.30606800000000006     H
H     0.8249989999999999 0.30606599999999995 0.9241230000000001     H
H     0.8249989999999999 0.44481099999999996 0.30606800000000006     H
H     0.8249990000000001 0.30606799999999995 0.44481100000000007     H
O     0.8276189999999999 0.42133999999999994 0.3761590000000001     O
O     0.827619 0.37616099999999986 0.8748790000000001     O
O     0.8276190000000001  0.37616 0.4213390000000001     O
O     0.8276199999999998 0.874879 0.3761590000000001     O
O     0.8276199999999999 0.42133999999999994 0.8748790000000001     O
O      0.82762 0.8748799999999999 0.4213390000000001     O
O     0.8276791605399948 0.006432891467760382 0.27802677693994327     O
O     0.8276796772192689 0.2780249934472931 0.38786069769934234     O
C     0.8279189999999998  0.89268 0.35350000000000004     C
C     0.8279190000000002 0.42590000000000006 0.35350000000000004     C
C     0.8279199999999999 0.3534999999999999 0.8926790000000001     C
C     0.8279199999999999 0.35350099999999995 0.42590000000000006     C
C      0.82792 0.8926789999999999 0.42590000000000006     C
C     0.8279200000000001 0.42590099999999986 0.8926790000000001     C
O     0.8291549999999999 0.012530999999999959 0.8291560000000001     O
O     0.829155 0.8291569999999999 0.012530100000000002     O
O     0.8291569999999999 0.8291559999999998 0.8291560000000001     O
C     0.8292089999999998 0.7855099999999999 0.195691     C
C      0.82921  0.19569 0.689591     C
C      0.82921 0.6895889999999998 0.7855100000000002     C
C      0.82921 0.6895889999999999 0.195691     C
C      0.82921 0.7855080000000001 0.689591     C
C     0.8292100000000002 0.195689 0.7855100000000002     C
O     0.8307789999999999 0.056459699999999974 0.32532000000000005     O
O     0.8307789999999999 0.287441 0.05646040000000001     O
O     0.8307789999999999 0.287441 0.32532000000000005     O
O     0.8307789999999999 0.325319 0.05646040000000001     O
O     0.8307790000000002 0.05646099999999998 0.28743900000000006     O
O     0.8307800000000001 0.32532099999999997 0.28743900000000006     O
F      0.83144 0.25572000000000006  0.70642     F
F     0.8314400000000001  0.70642 0.25571900000000003     F
F     0.8323689999999999 0.4176289999999999 0.41763000000000006     F
C     0.8326680000000002 0.8101499999999999 0.6799700000000001     C
C     0.8326689999999999 0.17720999999999998 0.6799700000000001     C
C     0.8326690000000001  0.67997 0.8101490000000001     C
C      0.83267 0.17720999999999998 0.8101490000000001     C
C      0.83267 0.679969  0.17721     C
C     0.832671 0.810149  0.17721     C
H     0.8358169999999998 0.326812 0.14827500000000002     H
H     0.835817 0.14827599999999996 0.3268130000000001     H
H     0.8358179999999997 0.148275 0.18909300000000004     H
H     0.8358179999999997 0.189093 0.14827500000000002     H
H     0.8358189999999999 0.189093 0.3268130000000001     H
H     0.835819 0.326811 0.18909300000000004     H
O     0.8381489999999996 0.8011300000000001 0.9814890000000001     O
O     0.8381489999999996 0.9814889999999998 0.8011290000000001     O
O     0.8381489999999996  0.98149 0.8792290000000001     O
O     0.838149 0.801129 0.8792290000000001     O
O     0.838149 0.879229 0.9814890000000001     O
O     0.8381499999999997 0.8792289999999998 0.8011290000000001     O
C     0.8395489999999999 0.9418700000000002 0.7991300000000001     C
C     0.8395490000000001 0.799129 0.9418700000000001     C
C     0.8395499999999998 0.7991300000000001 0.9194490000000001     C
C     0.8395499999999998 0.919449 0.9418700000000001     C
C     0.8395500000000002 0.9194499999999999 0.7991300000000001     C
C     0.8395509999999999 0.9418689999999998 0.9194490000000001     C
C       0.8415   0.0479 0.30530000000000007     C
C       0.8415 0.305299 0.04790040000000001     C
C     0.841501 0.305299 0.30530000000000007     C
S     0.842079934786954 0.025084109391820666 0.27330808174272475     S
S     0.8420799533296663 0.2733070429514934 0.35952707538752926     S
S     0.8421280168595269 0.27327828012830085 0.025075079770527132     S
F     0.843748 0.23370999999999995 0.34455100000000005     F
F     0.8437489999999999 0.0779908 0.23371000000000003     F
F     0.8437490000000001  0.34455 0.07799090000000002     F
H     0.8456434930052202 0.7172839448103959 0.09946911606192796     H
H     0.845925 0.350609 0.28495600000000004     H
H     0.845927 0.018508599999999972 0.35060800000000003     H
H     0.845927 0.350609 0.018507600000000003     H
O     0.8469269666699223 0.7340790229627884 0.8375477252004887     O
O     0.8469299054254621 0.08144234419895388 0.7340766323234589     O
Cr    0.847729 0.01042999999999994 0.7941090000000001    Cr
Cr    0.847729 0.7941099999999999 0.8477300000000001    Cr
Cr    0.847729  0.79411 0.010429100000000002    Cr
Cr    0.847729 0.8477289999999997 0.7941090000000001    Cr
Cr    0.8477300000000001 0.01042999999999994 0.8477300000000001    Cr
Cr    0.8477309999999999 0.847729 0.010429100000000002    Cr
O     0.8493454751083158 0.7532247410826636 0.05963063112666778     O
O     0.8495489999999999 0.21518999999999994 0.7409090000000002     O
O     0.8495489999999999 0.740909 0.21519000000000002     O
O     0.849549 0.21519099999999997  0.69435     O
O     0.8495490000000001  0.69435 0.21519000000000002     O
O      0.84955  0.69435 0.7409090000000002     O
O     0.8495500000000004 0.740909  0.69435     O
O     0.8496789999999999 0.33645999999999987 0.8961600000000001     O
O     0.8496789999999999  0.33646 0.41770000000000007     O
O     0.8496790000000001 0.417699 0.33646000000000004     O
O     0.8496790000000001 0.8961589999999999 0.33646000000000004     O
O     0.8496790000000001 0.8961600000000001 0.41770000000000007     O
O     0.8496799999999998 0.41769899999999993 0.8961600000000001     O
C     0.8515789999999996 0.339001 0.007439300000000001     C
C     0.851579 0.007439649999999992 0.30198100000000005     C
C     0.851579 0.338999 0.30198100000000005     C
C     0.8515790000000001 0.007440769999999999    0.339     C
C     0.8515790000000001  0.30198 0.007439300000000001     C
C     0.8515790000000002  0.30198    0.339     C
C     0.8516889999999997  0.19631 0.6889690000000002     C
C     0.8516889999999999 0.19630999999999993 0.7630310000000001     C
C     0.8516889999999999 0.6889699999999999 0.7630310000000001     C
C     0.851689 0.688969 0.19631000000000004     C
C     0.8516899999999998 0.7630289999999998 0.6889690000000002     C
C      0.85169 0.7630289999999998 0.19631000000000004     C
H     0.8517229999999998 0.16418199999999994 0.8109060000000001     H
H     0.8517229999999998 0.810906 0.164181     H
H     0.851723 0.673187 0.164181     H
H     0.8517239999999999 0.16418099999999997 0.6731880000000001     H
H     0.8517239999999999 0.6731880000000001 0.8109060000000001     H
H     0.8517239999999999 0.8109060000000001 0.6731880000000001     H
C     0.8541099999999999 0.31274900000000005 0.020390400000000003     C
C      0.85411 0.020389799999999986 0.31274900000000005     C
C     0.8541100000000001  0.31275 0.31274900000000005     C
Cr    0.8542090000000001  0.39579 0.39579000000000003    Cr
Cr    0.8542100000000002  0.39579 0.8542100000000001    Cr
Cr    0.8542109999999999 0.8542089999999999 0.39579000000000003    Cr
O     0.854309784562028 0.22253514440677005 0.11945964654361296     O
H     0.8553059999999999 0.949444 0.786892     H
H     0.8553060000000001 0.7868919999999999 0.9494440000000001     H
H     0.8553060000000001 0.9083570000000001 0.786892     H
H     0.8553069999999998 0.9083559999999999 0.9494440000000001     H
H     0.8553069999999999  0.78689 0.908357     H
H     0.8553069999999999 0.9494430000000001 0.908357     H
O     0.8556843812490778 0.2552733062344266 0.0440369697736061     O
O     0.8562289999999999 0.25551099999999993 0.2915690000000001     O
O     0.8562299999999999 0.0966904 0.25550900000000004     O
O     0.8562299999999999 0.29156899999999997 0.25550900000000004     O
O     0.8562300000000002 0.09668960000000001 0.2915690000000001     O
O     0.8562300000000002  0.25551 0.0966895     O
O     0.8562300000000002  0.29157 0.0966895     O
C     0.8564079999999998 0.9796099999999999 0.313291     C
C     0.8564089999999998  0.31329 0.9796100000000001     C
C     0.856409 0.31329100000000004 0.35069000000000006     C
C     0.856409 0.3506899999999999 0.9796100000000001     C
C     0.856409 0.979609 0.35069000000000006     C
C     0.8564100000000001 0.35068900000000003 0.313291     C
O     0.8564199200188377 0.26078904429076727 0.001607978692205103     O
C     0.857919  0.33816  0.33816     C
C     0.8579199999999997 0.9657600000000001  0.33816     C
C     0.8579200000000002 0.3381609999999999 0.9657590000000003     C
H     0.8588879999999999  0.30238 0.369369     H
H     0.8588879999999999 0.30238199999999993 0.9693610000000003     H
H     0.8588879999999999 0.36936899999999995 0.30238000000000004     H
H     0.8588879999999999 0.969361 0.30238000000000004     H
H     0.858889 0.36936899999999995 0.9693610000000003     H
H     0.858889 0.9693609999999999 0.369369     H
O     0.859608804230715 0.38652326208928933 0.4514003805063463     O
O     0.8607889999999997 0.03781040000000002 0.7844690000000001     O
O     0.860789  0.81693 0.037810500000000004     O
O     0.8607890000000002  0.78447 0.037810500000000004     O
O     0.8607899999999999 0.03780959999999994 0.8169300000000002     O
O     0.8607900000000002 0.7844690000000001 0.8169300000000002     O
O     0.8607900000000003 0.8169289999999999 0.7844690000000001     O
F     0.8618490000000001 0.7601899999999999 0.016110400000000004     F
F     0.8618490000000002 0.016110199999999908 0.7601890000000001     F
H     0.8621219680161489 0.3840940307632985 0.4893081706117737     H
H     0.8623541288364376 0.6857221578704963 0.3229939538420275     H
H     0.8623612042767493 0.6289080522368221 0.6857250003865256     H
H     0.8623640640795556 0.3230110351907547 0.6288984346909755     H
O     0.8635585195096575 0.7955344994622978 0.4406209767104218     O
O     0.8635631173390914 0.4406146095285811 0.4002913839994067     O
O     0.8635632967766034 0.40029205617200314 0.7955280511061633     O
O     0.8642354205380476 0.13544180031643427 0.20067588599507558     O
O     0.8642386649623345 0.20067290491200554 0.29964903945205695     O
C     0.8645989999999999 0.793739 0.04791990000000001     C
C     0.864599 0.04791949999999995 0.7937390000000001     C
C     0.8646009999999998 0.7937390000000001 0.7937390000000001     C
O     0.8646260581979035 0.711881822466617 0.09336994789836796     O
O     0.8650189248359865 0.02275401012091098 0.2503706333846938     O
O     0.8650189869936996 0.250369514509986 0.3618550420685736     O
C     0.8650789999999998  0.26664 0.10164000000000001     C
C     0.8650789999999999 0.266639 0.26664000000000004     C
C     0.865079 0.10163999999999997 0.26664000000000004     C
O     0.8654374726992743 0.6426105840811573 0.30296495754019626     O
O     0.865438324668634 0.30297594530251304 0.6889847433387026     O
O     0.8654403045290977 0.6889828037762749 0.64259962709491     O
O     0.8656969394236296 0.772495383284833 0.40385952741688375     O
O     0.8656984907237664 0.4579455249507411 0.772493662567649     O
Cr    0.8666789999999999 0.231959 0.7006800000000001    Cr
Cr    0.8666789999999999 0.700679 0.7006800000000001    Cr
Cr    0.866679 0.7006799999999999 0.23195900000000003    Cr
H     0.8679252383375287 0.7526340132318999 0.47194279972983477     H
H     0.8679297227457258 0.4719370296393496 0.4075025509920828     H
H     0.8679304346445984 0.4075027521736234 0.7526278182244049     H
O     0.8696623717818701 0.2795059098125384 0.6590675104928957     O
O     0.8696656284183689 0.6590710766249899 0.6917654682297799     O
O     0.869668434524768 0.6917720261098854 0.27947989608261203     O
C     0.8701289999999998 0.346391 0.9370890000000001     C
C     0.8701289999999998 0.9370889999999997 0.34639100000000006     C
C      0.87013 0.34639000000000003 0.34639100000000006     C
H     0.8720626637059385 0.24636846168832477 0.004824074576691889     H
O     0.8727289999999996 0.36839000000000005 0.9240500000000001     O
O     0.8727289999999998  0.92405 0.3683910000000001     O
O     0.872729  0.33483 0.3683910000000001     O
O     0.8727299999999996 0.334829 0.9240500000000001     O
O     0.8727299999999998 0.9240499999999999 0.33482900000000004     O
O     0.872731 0.36838899999999997 0.33482900000000004     O
S     0.8729378370905645 0.7355756605409202 0.06646694122946901     S
S     0.8729788039309312 0.7355668367595918 0.8250122699363553     S
S     0.8729810004662443 0.06643838560194018 0.7355665299514159     S
H     0.8731230933371333 0.18179482990533308 0.14829041120547226     H
O     0.8736189999999999 0.18394099999999997   0.6747     O
O     0.8736190000000001 0.6746989999999999 0.7677390000000001     O
O     0.8736190000000001 0.7677400000000001   0.6747     O
O     0.8736200000000001 0.6746990000000002  0.18394     O
O     0.8736200000000002 0.7677390000000001  0.18394     O
O     0.8736200000000003 0.18393999999999988 0.7677390000000001     O
O     0.874178130385951 0.7918965890400134 0.8726460773018764     O
O     0.8742102596354954 0.3665181895843861 0.4895423196414182     O
O     0.8748779999999998 0.37616000000000005 0.8276200000000001     O
O     0.8748789999999997  0.37616 0.4213390000000001     O
O     0.8748789999999997 0.42133999999999994 0.3761590000000001     O
O     0.8748789999999997  0.82762 0.3761590000000001     O
O     0.8748800000000001 0.4213399999999998 0.8276200000000001     O
O     0.8748800000000001  0.82762 0.4213390000000001     O
H     0.8757289999999995 0.8108959999999998 0.7418490000000001     H
H     0.8757289999999999 0.8108960000000001 0.07152410000000001     H
H     0.8757290000000002 0.07152379999999997 0.8108960000000001     H
O     0.8757315596344095 0.08606599112133782 0.22463112865404758     O
O     0.8757346665814943 0.22463140121871156 0.3135698296706845     O
O     0.876328  0.37367 0.37367100000000003     O
O     0.8763289999999999  0.87633 0.37367100000000003     O
O     0.8763299999999998 0.3736709999999999 0.8763290000000001     O
C     0.8767889999999998 0.06751039999999997 0.7778490000000001     C
C     0.8767889999999999  0.77785 0.06750920000000002     C
C     0.8767909999999997 0.777849 0.7778490000000001     C
S     0.8787688679500135 0.36361191405527293 0.46273828207246864     S
O     0.879229 0.8011300000000001 0.9814890000000001     O
O     0.8792299999999997 0.838149 0.9814890000000001     O
O     0.8792299999999997 0.9814889999999998 0.8011290000000001     O
O     0.8792300000000001 0.9814899999999999 0.838149     O
O     0.8792309999999999 0.8381489999999998 0.8011290000000001     O
O     0.879231 0.8011290000000001 0.838149     O
C     0.8798389999999998 0.07911989999999991 0.7507600000000001     C
C     0.8798389999999998 0.07911989999999997 0.7902790000000001     C
C     0.8798389999999998 0.7902799999999999 0.7507600000000001     C
C     0.879839 0.7507600000000001 0.7902790000000001     C
C     0.8798399999999997 0.790279 0.0791193     C
C     0.8798399999999998 0.7507599999999999 0.0791193     C
O     0.8804918530365753 0.6742590449734072 0.3195247091107971     O
O     0.8804991951189869 0.6257038225862452 0.6742626461513702     O
O     0.8805022416963567 0.3195379175365535 0.625695190662762     O
O     0.8808034423591504 0.33703069100634253 0.4699516927006049     O
S     0.8823767051459924 0.20953202454291733 0.10994652429064428     S
S     0.8824056330534976 0.10990149953194696 0.20953551499684656     S
S     0.8824085839309436 0.20953452968080621 0.29815717745867193     S
O     0.8829877104690596 0.7456878956847253 0.8332901452845706     O
O     0.8829895210784772 0.03803060249701984 0.7456890988410219     O
O     0.8846479677762717 0.9385587787227656 0.887353569163839     O
O     0.8846493432618958 0.789431874018462 0.9385629670935244     O
O     0.8847379999999998 0.24479999999999996 0.6627800000000001     O
O     0.8847389999999999 0.6627789999999999 0.24479900000000004     O
O     0.884739 0.24480099999999996 0.7076790000000001     O
O     0.8847400000000001 0.7076789999999998 0.24479900000000004     O
O     0.8847400000000001 0.707679 0.6627800000000001     O
O     0.8847400000000002 0.662779 0.7076790000000001     O
O     0.8850517344753445 0.7478137780052448 0.4590659625617744     O
O     0.885057538826086 0.4590616574461969 0.40806994167976096     O
O     0.8850583093081044 0.4080699029043528 0.7478081658789569     O
Cr    0.886179 0.336399 0.39124100000000006    Cr
Cr    0.886179 0.39123899999999995 0.33640000000000003    Cr
Cr    0.8861790000000003 0.33640000000000003 0.8861800000000001    Cr
Cr    0.8861799999999997 0.3912389999999999 0.8861800000000001    Cr
Cr    0.8861799999999997 0.8861780000000001 0.39124100000000006    Cr
Cr    0.8861799999999997 0.886179 0.33640000000000003    Cr
O     0.8884949404434217 0.7933130741715118 0.4088246686296059     O
O     0.8884969007464456 0.4093648016495817 0.7933112642848551     O
C     0.888559 0.735439 0.101301     C
C     0.8885599999999998 0.10129899999999992 0.7354390000000001     C
C      0.88856 0.735439 0.7746990000000001     C
C      0.88856 0.7746999999999997 0.7354390000000001     C
C     0.8885600000000001 0.7746990000000001 0.101301     C
C     0.8885609999999999 0.10129899999999992 0.7746990000000001     C
S     0.8888510749739157 0.7752330715164638 0.43549618604955687     S
S     0.888856879605702 0.4354922486524222 0.4004205493369056     S
S     0.888857277380519 0.40042073897620817 0.7752277549711301     S
H     0.8888769999999998 0.11046799999999997 0.28452200000000005     H
H     0.8888769999999999 0.28452299999999997 0.11046700000000001     H
H     0.8888769999999999 0.2845230000000001 0.21613200000000002     H
S     0.8888895904793752 0.775226196933117 0.40043209963721205     S
S     0.8888912834745915 0.43544972604189636 0.7752246006861093     S
O     0.8889751790655807 0.18126465959403598 0.13308824067035505     O
H     0.8895309999999996 0.11112299999999992 0.7838670000000001     H
H     0.8895309999999997 0.11112300000000003 0.7154770000000001     H
H     0.8895309999999997 0.7838679999999999 0.7154770000000001     H
H     0.889532 0.7154759999999999 0.7838670000000001     H
H     0.889532 0.783868 0.11112200000000001     H
H     0.8895320000000002 0.7154769999999999 0.11112200000000001     H
C     0.889919 0.252981 0.10411900000000002     C
C     0.8899199999999997 0.25297900000000006 0.252979     C
C      0.88992 0.10411899999999999 0.252979     C
C     0.8906889999999998 0.816139 0.9770300000000001     C
C      0.89069 0.9770299999999998 0.816139     C
C     0.8906909999999999 0.8161400000000001 0.816139     C
S     0.8920426207117869 0.28854846053647343 0.6424065715928455     S
S     0.8920426928390612 0.6770039898007334 0.28853199891659276     S
S     0.8920435764218749 0.6424105611323244 0.6770018615271773     S
S     0.8920837390860012 0.2885283465602867 0.6769667658043724     S
S     0.8920839822655703 0.6424273854404565 0.2885184156050946     S
S     0.8920857624066622 0.6769655796355203 0.6424195354569974     S
C     0.8926789999999998 0.42589999999999995 0.8279200000000001     C
C     0.8926789999999999 0.35350099999999995 0.42590000000000006     C
C     0.8926789999999999 0.42590000000000006 0.35350000000000004     C
C     0.8926789999999999 0.827919 0.42590000000000006     C
C     0.892679 0.353499 0.8279200000000001     C
C     0.8926790000000003  0.82792 0.35350000000000004     C
O     0.8929830804594397 0.7055286070749832 0.8263221181952884     O
O     0.8929869509694328 0.07516112823012597 0.7055289764432968     O
H     0.8939569407866609 0.7864566941072778 0.8998931319204319     H
O     0.8943325448383744 0.9814326395227747 0.8575585707924738     O
O     0.8943353884913914 0.7666717011020499 0.9814357140006682     O
C     0.8958790000000001  0.74702 0.7470200000000001     C
C     0.8958799999999998 0.11007899999999998 0.7470200000000001     C
C     0.8958800000000001  0.74702 0.11007900000000001     C
O     0.8959489999999999 0.19610899999999992 0.7039700000000001     O
O     0.895949  0.70397  0.19611     O
O      0.89595 0.7039689999999998 0.7039700000000001     O
O     0.8960577916506538 0.20378721169973316 0.08583504957493716     O
O     0.8961589999999999  0.33646 0.41770000000000007     O
O     0.8961589999999999 0.417699 0.33646000000000004     O
O     0.8961590000000001  0.84968 0.33646000000000004     O
O     0.8961599999999996   0.4177 0.8496790000000002     O
O     0.8961599999999998 0.3364599999999999 0.8496790000000002     O
O     0.8961599999999998  0.84968 0.41770000000000007     O
O     0.8969171176580398 0.7228782479714242 0.04935201730965039     O
C      0.89836 0.13491899999999998 0.733359     C
C      0.89836  0.73336 0.733359     C
C     0.8983600000000003  0.73336 0.134919     C
C     0.8986989999999999 0.11144000000000003   0.2253     C
C     0.8986989999999999   0.2253 0.11143900000000001     C
C     0.898699 0.11143999999999997 0.2645600000000001     C
C     0.8986999999999998 0.2645600000000001   0.2253     C
C     0.8986999999999999 0.22529899999999997 0.2645600000000001     C
C     0.8987000000000002 0.264561 0.11143900000000001     C
O     0.8992789953570542 0.2689562374128964 0.6663220364056063     O
O     0.8992811032097977 0.6663205062362296 0.6654411367074541     O
O     0.8992825421482734 0.6654457311032628 0.26894070719547053     O
S     0.902092515225051 0.7777300288980225 0.8671391021414496     S
S     0.9021208376806589 0.9530657806632254 0.86711716676565     S
S     0.9021226799457528 0.7776908293912402 0.95306886951588     S
O     0.902726836014434 0.7692071218641586 0.4115273690407737     O
O     0.9027368050805313 0.4115236138992886 0.41653595934795407     O
O     0.9027374423766972 0.4165359260251646 0.769201047083675     O
C     0.9031789999999997 0.6460999999999999   0.7165     C
C     0.903179   0.6461 0.23422000000000004     C
C     0.9031799999999996 0.23421999999999998   0.7165     C
C     0.9031799999999999 0.23421999999999998 0.646099     C
C     0.9031799999999999 0.716499 0.646099     C
C      0.90318 0.7164990000000001 0.23422000000000004     C
O     0.9033079999999999 0.14376999999999998 0.7444900000000001     O
O     0.9033089999999998 0.7084300000000001 0.7444900000000001     O
O     0.9033089999999999 0.143769 0.7084300000000001     O
O     0.903309 0.708429 0.14376900000000004     O
O     0.903309  0.74449 0.14376900000000004     O
O     0.9033090000000001 0.7444900000000001 0.7084300000000001     O
F     0.903689 0.9036900000000001 0.3928900000000001     F
F     0.9036890000000002 0.392891 0.903689     F
O     0.9054573196541891 0.6310894530450559 0.3106397032558196     O
O     0.9054604590693442 0.3106488941920471 0.652814665684672     O
O     0.9054634774070913 0.6528140820376722 0.6310732749283801     O
O     0.9060734032106817 0.7459412366522485 0.4152627880492784     O
O     0.9060756104110849 0.43272039523295347 0.7459395842296881     O
Cr    0.9067989999999998  0.67812 0.7387990000000001    Cr
Cr    0.906799 0.176281 0.7387990000000001    Cr
Cr    0.906799   0.7388 0.6781190000000001    Cr
Cr    0.9067990000000001 0.738798 0.17628100000000002    Cr
Cr    0.9067990000000002  0.67812 0.17628100000000002    Cr
Cr    0.9068000000000002 0.17627999999999994 0.6781190000000001    Cr
O     0.9070311261137335 0.10494084461801241 0.1830310220359406     O
O     0.9070353508956696 0.18303131640554532 0.3049959743278024     O
H     0.907927216513415 0.703329572923295 0.8292583874021112     H
H     0.9079312039381846 0.05947946306942567 0.7033312820502804     H
H     0.9083560000000002 0.949444 0.786892     H
H     0.9083569999999999 0.855305 0.786892     H
H     0.9083569999999999 0.8553059999999999 0.9494440000000001     H
O     0.9093596772006977 0.7752602510928922 0.8903321385803238     O
O     0.9094276936418009 0.28732548300020583 0.6520573067458125     O
O     0.9094281309730434 0.6511922543860034 0.2873057102009577     O
O     0.9094287357922097 0.6520614153884121 0.6511891490636886     O
C     0.9104489999999996  0.77899 0.36721000000000004     C
C     0.9104489999999998 0.7789910000000001 0.44334900000000005     C
C     0.9104499999999998 0.44334899999999994 0.36721000000000004     C
C     0.9104499999999999 0.36721000000000004 0.7789890000000002     C
C     0.9104499999999999 0.443349 0.7789890000000002     C
C     0.9104500000000002 0.36721000000000004 0.44334900000000005     C
C     0.9107789999999999   0.2751   0.6978     C
C     0.9107789999999999 0.697799 0.27510000000000007     C
C     0.910779 0.275099 0.6163200000000001     C
C     0.9107790000000001  0.61632 0.27510000000000007     C
C     0.9107799999999998 0.6163200000000001   0.6978     C
C     0.9107799999999999   0.6978 0.6163200000000001     C
O     0.9110589999999996 0.21039999999999998 0.6507000000000001     O
O     0.9110589999999998 0.6506990000000001  0.72784     O
O     0.9110589999999998 0.7278389999999999 0.6507000000000001     O
O     0.9110590000000003 0.21040000000000003  0.72784     O
O      0.91106 0.7278389999999999 0.21040000000000003     O
O     0.9110600000000001   0.6507 0.21040000000000003     O
C     0.9112989999999995 0.347699 0.8040800000000001     C
C     0.911299 0.4369200000000001 0.34770000000000006     C
C     0.911299  0.80408 0.34770000000000006     C
C     0.9112999999999997 0.43691900000000006 0.8040800000000001     C
C     0.9112999999999999   0.3477 0.43691900000000006     C
C     0.9112999999999999 0.804079 0.43691900000000006     C
C     0.9116599999999999 0.816799 0.8167990000000002     C
C     0.9116600000000001   0.8168 0.9547390000000001     C
C     0.911661 0.9547389999999998 0.8167990000000002     C
H     0.9127785397431539 0.08647210690865842 0.18567369058891336     H
H     0.9127831438984558 0.1856753329028874 0.3150733111389998     H
H     0.9140857671116869 0.748525974720404 0.4232995641900643     H
H     0.9140882809089701 0.4140865399572349 0.7485242092371029     H
O     0.9145845183667435 0.751973866800748 0.8649457535902559     O
C     0.9149979999999999 0.24922099999999994 0.6211400000000001     C
C     0.9149990000000001 0.621139 0.24922000000000002     C
C     0.9149999999999998  0.71464 0.24922000000000002     C
C        0.915 0.24922099999999997 0.714639     C
C        0.915  0.62114 0.714639     C
C     0.9150000000000001 0.714639 0.6211400000000001     C
H     0.9164069999999996 0.686108 0.5867890000000001     H
H     0.9164069999999999 0.586788 0.6861100000000001     H
H     0.9164069999999999 0.5867890000000001 0.310695     H
H     0.9164070000000001 0.310694 0.5867890000000001     H
H     0.916408 0.310694 0.6861100000000001     H
H     0.916408 0.6861090000000001 0.310695     H
H     0.9171794619160796 0.6407161929695131 0.3034809345188339     H
H     0.9171815112029889 0.3034928458712947 0.6386225393147476     H
H     0.917184848187999 0.638622045350091 0.6407000766738951     H
C     0.9194489999999997 0.7991299999999999 0.8395500000000001     C
C     0.9194489999999997 0.9418690000000001 0.8395500000000001     C
C     0.919449 0.799129 0.9418700000000001     C
C     0.919449 0.8395489999999999 0.9418700000000001     C
C     0.919449 0.8395490000000001 0.7991300000000001     C
C     0.919449 0.9418700000000002 0.7991300000000001     C
C     0.9208799999999997 0.24924099999999993 0.20971900000000002     C
C     0.9208799999999999 0.12015999999999999 0.24923900000000002     C
C     0.9208800000000001 0.12015999999999999 0.20971900000000002     C
C     0.9208800000000001 0.20972000000000002 0.12015900000000002     C
C     0.9208800000000001 0.24923999999999996 0.12015900000000002     C
C     0.9208809999999998 0.20971899999999996 0.24923900000000002     C
C     0.921189 0.6972900000000001 0.29037100000000005     C
C     0.9211899999999997 0.29037099999999993 0.6972890000000002     C
C      0.92119 0.5911490000000001 0.29037100000000005     C
C      0.92119  0.59115 0.6972890000000002     C
C     0.9211909999999999  0.69729 0.5911490000000001     C
C     0.9211910000000001 0.290369 0.5911490000000001     C
F     0.9220110000000004 0.655449 0.766289     F
O     0.9240489999999998 0.8727299999999999 0.33482900000000004     O
O     0.9240489999999999 0.3348289999999999 0.8727300000000001     O
O     0.9240489999999999  0.33483 0.3683910000000001     O
O     0.9240490000000001  0.87273 0.3683910000000001     O
O     0.9240499999999999 0.36838899999999997 0.33482900000000004     O
O      0.92405 0.36838999999999994 0.8727300000000001     O
H     0.924121 0.30606699999999987 0.824999     H
H     0.9241210000000001 0.824997 0.30606800000000006     H
H     0.9241219999999999 0.44481100000000007 0.824999     H
H     0.924122 0.30606799999999995 0.44481100000000007     H
H     0.924122 0.44481099999999996 0.30606800000000006     H
H     0.924122 0.824998 0.44481100000000007     H
C     0.9254289999999998 0.320789 0.447571     C
C     0.925429  0.44757 0.8062100000000001     C
C     0.9254290000000001  0.44757 0.32079100000000005     C
C     0.9254299999999999  0.32079 0.8062100000000001     C
C      0.92543 0.806208 0.447571     C
C     0.9254300000000002 0.806209 0.32079100000000005     C
O     0.9263480721433134 0.9420361058833205 0.8776150477749175     O
O     0.9263509508727161 0.753995586216919 0.9420395421077861     O
C     0.9273489999999998 0.45633099999999993 0.359589     C
C     0.9273489999999999 0.3595900000000001 0.45632900000000004     C
C     0.927349 0.359589 0.7567290000000001     C
C     0.927349  0.75673 0.359589     C
C     0.9273490000000002 0.45632999999999996 0.7567290000000001     C
C      0.92735  0.75673 0.45632900000000004     C
H     0.9284759999999997 0.12427199999999998 0.25815000000000005     H
H     0.9284759999999997 0.18910300000000002 0.25815000000000005     H
H     0.9284759999999999 0.189104 0.12427000000000002     H
H     0.928476 0.25815099999999996 0.12427000000000002     H
H     0.9284760000000001 0.12426999999999999 0.18910300000000002     H
H     0.9284760000000001 0.258151 0.18910300000000002     H
H     0.9312659172292241 0.9570020642024377 0.8719651212990971     H
H     0.931269697240275 0.7397626070572099 0.9570054121257665     H
H     0.9323689999999997 0.7378280000000002 0.45617100000000005     H
H     0.9323689999999999 0.456171 0.737828     H
H     0.9323690000000001 0.3736289999999999 0.737828     H
H     0.9323690000000001  0.37363 0.45617100000000005     H
H     0.9323690000000001 0.4561720000000001 0.3736300000000001     H
H     0.9323690000000001 0.737827 0.3736300000000001     H
C     0.9324889999999996 0.22215000000000001 0.22215000000000001     C
C     0.932489  0.12321 0.22215000000000001     C
C     0.932489 0.222151 0.12320900000000001     C
F     0.9330399999999999 0.37855899999999987 0.6719600000000001     F
F     0.9330400000000001 0.6719599999999999 0.5164400000000001     F
C     0.9339389999999999 0.6029800000000001 0.7266990000000001     C
C     0.933939 0.236381 0.6029790000000002     C
C     0.9339399999999998 0.23637999999999992 0.7266990000000001     C
C     0.9339399999999999 0.6029790000000002 0.23638000000000003     C
C     0.9339400000000001 0.7266989999999999 0.6029790000000002     C
C     0.9339400000000001 0.7267000000000001 0.23638000000000003     C
C     0.937089 0.34639000000000003 0.34639100000000006     C
C     0.937089 0.870129 0.34639100000000006     C
C     0.9370899999999998 0.34639000000000003  0.87013     C
C     0.9379189999999998  0.57186 0.2785790000000001     C
C     0.937919  0.27858 0.5718600000000001     C
C     0.9379199999999998 0.7116390000000001 0.2785790000000001     C
C     0.9379199999999999 0.27857899999999997 0.7116390000000001     C
C     0.9379199999999999 0.5718590000000001 0.7116390000000001     C
C     0.9379200000000001 0.7116389999999999 0.5718600000000001     C
C     0.9379889999999999  0.33209  0.75983     C
C     0.937989 0.470089 0.3320910000000001     C
C     0.937989 0.7598300000000001 0.3320910000000001     C
C     0.9379899999999999  0.33209 0.47008900000000003     C
C     0.9379900000000001 0.7598290000000001 0.47008900000000003     C
C     0.9379900000000002 0.4700900000000001  0.75983     C
H     0.9390879999999999 0.7365860000000001 0.21579000000000004     H
H     0.9390880000000001 0.21578999999999998 0.7365870000000001     H
H     0.9390889999999998 0.21578999999999998 0.6085340000000001     H
H     0.9390889999999998 0.608534 0.21579000000000004     H
H     0.9390889999999998 0.6085340000000001 0.7365870000000001     H
H      0.93909 0.736586 0.6085340000000001     H
C     0.9413389999999998 0.783139 0.31357900000000005     C
C     0.9413389999999999 0.313579 0.7831400000000001     C
C     0.9413389999999999 0.4619400000000001 0.7831400000000001     C
C     0.9413389999999999 0.783139  0.46194     C
C     0.9413400000000001 0.31357899999999994  0.46194     C
C     0.9413409999999999 0.461939 0.31357900000000005     C
C     0.9418680000000001 0.9194499999999999 0.7991300000000001     C
C     0.9418689999999996  0.83955 0.9194490000000001     C
C     0.9418689999999996 0.9194489999999997 0.8395500000000001     C
C     0.9418689999999998 0.7991300000000001 0.9194490000000001     C
C     0.9418690000000001 0.7991299999999999 0.8395500000000001     C
C      0.94187 0.8395490000000001 0.7991300000000001     C
O     0.9435389999999999 0.16922099999999998 0.7125590000000002     O
O     0.943539 0.7125599999999999 0.6746790000000001     O
O     0.9435390000000001 0.6746799999999998 0.7125590000000002     O
O      0.94354  0.67468 0.16921900000000004     O
O     0.9435400000000002  0.16922 0.6746790000000001     O
O     0.9435400000000002  0.71256 0.16921900000000004     O
C     0.9455489999999999 0.251289 0.7252900000000001     C
C     0.9455489999999999 0.577869 0.7252900000000001     C
C     0.945549  0.25129 0.5778700000000001     C
C     0.945549  0.72529 0.5778700000000001     C
C     0.9455499999999997 0.7252890000000001 0.251289     C
C     0.9455499999999999  0.57787 0.251289     C
O     0.9492179999999998 0.696341 0.3169390000000001     O
O     0.9492189999999998  0.31694 0.6963400000000001     O
O     0.949219 0.31693999999999994 0.5374990000000001     O
O     0.949219 0.5374999999999999 0.6963400000000001     O
O     0.949219  0.69634 0.5374990000000001     O
O     0.9492199999999998 0.5374989999999998 0.3169390000000001     O
H     0.9494439999999997 0.9083570000000001 0.786892     H
H     0.9494439999999998 0.786892 0.8553060000000001     H
H     0.949444 0.855305 0.786892     H
H     0.949445  0.78689 0.908357     H
H     0.949445 0.8553049999999999 0.908357     H
H     0.949445 0.908356 0.8553060000000001     H
C     0.9520789999999998 0.20626099999999997   0.1354     C
C     0.952079 0.13539999999999996 0.20626000000000003     C
C     0.952079 0.20625999999999997 0.20626000000000003     C
C     0.952099 0.15849999999999997 0.6946990000000001     C
C     0.9520999999999997 0.6947000000000001 0.6946990000000001     C
C     0.9521000000000001 0.694699 0.15850000000000003     C
C     0.9542290000000001 0.32264899999999996  0.73919     C
C     0.9542290000000001 0.48392900000000005  0.73919     C
C     0.9542290000000002  0.73919  0.32265     C
C     0.9542299999999999 0.48392999999999997  0.32265     C
C     0.9542299999999999 0.739189 0.48392900000000005     C
C     0.954231 0.32264899999999996 0.48392900000000005     C
C     0.9542989999999999  0.29076 0.5476010000000001     C
C     0.9542989999999999 0.707339 0.5476010000000001     C
C     0.954299 0.29075999999999996  0.70734     C
C     0.9542990000000001 0.5476000000000001 0.2907600000000001     C
C     0.9542990000000001 0.7073400000000001 0.2907600000000001     C
C     0.9542990000000002 0.5475999999999999  0.70734     C
C     0.9547389999999996 0.816799 0.8167990000000002     C
C     0.954739 0.8167999999999997 0.9116590000000001     C
C     0.954739 0.9116599999999999 0.8167990000000002     C
H     0.9554280000000002 0.29458899999999993 0.7836080000000001     H
H     0.9554289999999998 0.7836079999999999 0.29458800000000007     H
H     0.9554289999999999 0.294589 0.46637400000000007     H
H     0.9554289999999999 0.7836069999999999 0.46637400000000007     H
H     0.9554290000000001 0.466374 0.7836080000000001     H
H     0.9554300000000001 0.4663729999999999 0.29458800000000007     H
H     0.9578059999999999 0.33856099999999995 0.582108     H
H     0.9578069999999996 0.6215239999999999 0.33855900000000005     H
H     0.9578069999999999 0.33855999999999997 0.621524     H
H     0.9578069999999999 0.5821069999999999 0.33855900000000005     H
H     0.9578079999999998 0.621523 0.582108     H
H     0.957808 0.582108 0.621524     H
O     0.959129 0.4864510000000001 0.716029     O
O     0.959129 0.716031 0.486449     O
O     0.9591290000000001 0.4864509999999999 0.3383900000000001     O
O     0.9591290000000001 0.716029 0.3383900000000001     O
O     0.9591299999999999 0.33838899999999994 0.486449     O
O     0.9591299999999999 0.33838999999999997 0.716029     O
H     0.9599469999999998 0.7343999999999999   0.5635     H
H     0.9599469999999999 0.24215199999999995 0.7344000000000002     H
H     0.9599469999999999 0.5634989999999999 0.7344000000000002     H
H     0.9599469999999999 0.563499 0.24215300000000003     H
H     0.959947 0.24215199999999995   0.5635     H
H     0.9599479999999998 0.734399 0.24215300000000003     H
H      0.96097 0.4551339999999999 0.414506     H
H     0.9609700000000001 0.45513299999999995 0.669389     H
H     0.9609700000000002 0.41450699999999996 0.45513300000000007     H
H     0.9609709999999999 0.669388 0.45513300000000007     H
H     0.960971 0.41450499999999996 0.669389     H
H     0.9609710000000001 0.669388 0.414506     H
O     0.9621889999999998  0.13921 0.18307100000000004     O
O     0.962189  0.21553 0.139211     O
O     0.9621890000000001  0.21553 0.18307100000000004     O
O     0.9621899999999999 0.183069 0.139211     O
O      0.96219  0.13921 0.21552900000000003     O
O      0.96219 0.18307000000000004 0.21552900000000003     O
Cr    0.9643689999999999  0.34617 0.5098100000000001    Cr
Cr    0.9643689999999999  0.50981 0.34617000000000003    Cr
Cr    0.964369 0.5098099999999999 0.679649    Cr
Cr    0.9643690000000001 0.6796499999999999 0.5098100000000001    Cr
Cr    0.9643699999999998 0.6796490000000001 0.34617000000000003    Cr
Cr    0.9643710000000001 0.346169 0.679649    Cr
C     0.9657599999999997 0.33815999999999996 0.8579190000000001     C
C     0.9657599999999998  0.33816  0.33816     C
C     0.9657599999999998 0.857919  0.33816     C
H      0.96936 0.8588880000000001 0.369369     H
H     0.9693609999999997 0.302382 0.8588880000000001     H
H     0.9693609999999997 0.369369 0.8588880000000001     H
H     0.9693609999999998 0.36936899999999995 0.30238000000000004     H
H     0.9693609999999999  0.30238 0.369369     H
H     0.969362 0.858888 0.30238000000000004     H
O     0.9697189999999998 0.48521999999999993 0.29929900000000004     O
O     0.9697189999999999 0.29929999999999995 0.48521900000000007     O
O     0.969719 0.29929999999999995 0.745761     O
O     0.9697199999999997 0.485219 0.745761     O
O     0.9697199999999998  0.74576 0.48521900000000007     O
O     0.9697199999999999 0.745759 0.29929900000000004     O
O     0.9721589999999997 0.274899 0.7183400000000001     O
O     0.9721589999999998 0.2748999999999999 0.534599     O
O     0.9721589999999999   0.5346   0.2749     O
O     0.9721590000000003  0.71834   0.2749     O
O     0.9721599999999999 0.7183389999999998 0.534599     O
O     0.9721600000000002 0.5345990000000002 0.7183400000000001     O
C     0.9744599999999998   0.5816 0.604199     C
C      0.97446 0.3397389999999999 0.604199     C
C      0.97446 0.5816000000000001 0.339741     C
C      0.97446 0.6041990000000002 0.339741     C
C      0.97446   0.6042 0.5815990000000001     C
C     0.9744600000000002 0.33974100000000007 0.5815990000000001     C
O     0.9752880000000002  0.64465 0.5308700000000001     O
O     0.9752889999999999 0.34918999999999994 0.5308700000000001     O
O     0.975289  0.53087 0.644649     O
O     0.9752899999999998 0.530869 0.3491890000000001     O
O      0.97529 0.6446510000000001 0.3491890000000001     O
O     0.9752900000000001  0.34919 0.644649     O
C     0.9770289999999999 0.8161399999999999 0.8906900000000001     C
C     0.9770289999999999  0.89069 0.816139     C
C     0.9770309999999998 0.8161400000000001 0.816139     C
C     0.9787589999999999 0.43969900000000006  0.66492     C
C     0.9787589999999999 0.664918 0.43970000000000004     C
C     0.9787599999999996 0.4166199999999999  0.66492     C
C     0.9787599999999997  0.66492 0.4166210000000001     C
C     0.9787599999999999 0.4166190000000001 0.43970000000000004     C
C      0.97876   0.4397 0.4166210000000001     C
C     0.979609 0.31329100000000004 0.35069000000000006     C
C     0.9796099999999998 0.14589000000000002 0.6872500000000001     C
C     0.9796099999999999 0.35068900000000003 0.313291     C
C     0.9796099999999999 0.35068999999999995 0.8564090000000001     C
C     0.9796099999999999 0.6872499999999999  0.14589     C
C     0.9796099999999999 0.856409 0.313291     C
C     0.9796099999999999 0.856409 0.35069000000000006     C
C      0.97961  0.68725 0.6872500000000001     C
C     0.9796100000000001 0.3132910000000001 0.8564090000000001     C
O     0.9814899999999998 0.8381489999999998 0.8011290000000001     O
O     0.9814899999999998  0.83815 0.8792290000000001     O
H     0.9814899999999999 0.649391 0.7150440000000001     H
H     0.9814899999999999 0.715044 0.649391     H
O     0.9814899999999999 0.8792300000000001 0.838149     O
O      0.98149 0.801129 0.8792290000000001     O
O      0.98149 0.8792289999999998 0.8011290000000001     O
H     0.9814909999999997 0.649391 0.15407400000000002     H
H     0.9814909999999997 0.715044 0.15407400000000002     H
H     0.9814909999999998 0.15407199999999996 0.7150440000000001     H
H     0.9814909999999998 0.15407399999999993 0.649391     H
O     0.9814909999999998 0.8011290000000001 0.838149     O
O     0.9830589999999998 0.368159 0.6709600000000001     O
O     0.9830589999999998 0.4778190000000001 0.6709600000000001     O
O     0.9830589999999998  0.67096 0.368159     O
O     0.9830590000000001 0.6709609999999999 0.4778190000000001     O
O     0.9830600000000002 0.477819 0.368159     O
O     0.9830600000000003 0.3681599999999999 0.4778190000000001     O
F     0.9838889999999999  0.13815 0.23981000000000005     F
O     0.9874699999999997 0.17084300000000002 0.17084300000000002     O
Cr    0.9895689999999999 0.15226999999999996 0.20589000000000002    Cr
Cr    0.989569 0.205889 0.15227100000000002    Cr
Cr     0.98957 0.15226999999999996 0.15227100000000002    Cr
C     0.9925580000000002 0.14842099999999997 0.6980200000000001     C
C     0.9925589999999999 0.6980200000000001 0.14842000000000002     C
C      0.99256 0.6609989999999999 0.6980200000000001     C
C      0.99256 0.660999 0.14842000000000002     C
C     0.9925600000000001  0.14842 0.660999     C
C     0.992561 0.698019 0.660999     C
C     0.996478 0.6038799999999999  0.55834     C
C     0.996479 0.5583399999999998   0.3413     C
C     0.9964790000000001 0.5583389999999999 0.6038800000000001     C
C     0.9964799999999998 0.34129899999999996 0.6038800000000001     C
C      0.99648 0.34129999999999994  0.55834     C
C     0.9964800000000001  0.60388   0.3413     C
C     0.9965189999999999  0.62608 0.534359     C
C     0.996519 0.534359 0.34304000000000007     C
C     0.9965190000000002 0.34304000000000007 0.534359     C
C     0.9965199999999997 0.6260800000000001 0.34304000000000007     C
C     0.9965200000000001 0.534359 0.6260790000000002     C
C     0.9965210000000002 0.3430389999999999 0.6260790000000002     C
