data_I
_chemical_name_common  '/home/zhangsd/repos/MofS-CGCNN/ML/data/WS24/clean_cifs/mil-53-f-al'
_cell_length_a 17.29140
_cell_length_b  6.60062
_cell_length_c 11.88730
_cell_angle_alpha 90.00000
_cell_angle_beta  90.00000
_cell_angle_gamma 90.00000
_space_group_name_H-M_alt      'P 1'


loop_
_space_group_symop_operation_xyz
  'x, y, z' 

loop_
_atom_site_label
_atom_site_fract_x
_atom_site_fract_y
_atom_site_fract_z
_atom_site_type_symbol
F     -0.32753314894490704 0.11035612067752291 -0.29032258732067145     F
O     -0.07336 -0.08421700000000001 -0.11178     O
O     -0.07336 0.08421700000000001  0.11178     O
O     -0.07336 0.41581700000000005  0.11178     O
O     -0.07336 0.584217 -0.11178     O
O          0.0    -0.25 0.0665418     O
Al         0.0      0.0      0.0    Al
O          0.0     0.25 -0.0665418     O
Al         0.0      0.5      0.0    Al
Al         0.0      0.5      1.0    Al
Al         0.0      1.0      0.0    Al
Al         0.0      1.0      1.0    Al
O      0.07336 -0.08421700000000001 -0.11178     O
O      0.07336 0.08421700000000001  0.11178     O
O      0.07336 0.41581700000000005  0.11178     O
O      0.07336 0.584217 -0.11178     O
C      0.10047     0.25  0.13801     C
C      0.10047 0.7500000000000001  0.86201     C
C      0.17207     0.25 0.20781000000000002     C
C      0.17207 0.7500000000000001  0.79221     C
F     0.17245499726902258 1.1104180881402348 0.7901921089048479     F
F     0.17246685105509313 0.6103561206775232 0.20967741267932863     F
C      0.20685 0.4306130000000001  0.23831     C
C      0.20685 0.930613  0.76171     C
H     0.207692 -0.0635708 0.153006     H
H     0.207692 0.436429 0.8469940000000001     H
C      0.22415 0.068213  0.20279     C
C      0.22415 0.568213  0.79739     C
C      0.27595 0.431813  0.29739     C
C      0.27595 0.9318130000000001  0.70279     C
H     0.292308 0.5635710000000002 0.346994     H
H     0.292308  1.06357 0.653006     H
C      0.29325 0.069413  0.26171     C
C      0.29325 0.569413  0.73831     C
H     0.320471 -0.0736087 0.284358     H
H     0.320471 0.426391 0.7156420000000001     H
C      0.32807     0.25  0.29221     C
C      0.32807 0.7500000000000001  0.70781     C
C      0.39967     0.25  0.36201     C
C      0.39967 0.7500000000000001  0.63801     C
O      0.42676 -0.08421700000000001  0.61178     O
O      0.42676 0.08421700000000001 0.38838000000000006     O
O      0.42676 0.41581700000000005 0.38838000000000006     O
O      0.42676 0.584217  0.61178     O
O          0.5    -0.25 0.43346180000000006     O
Al         0.5      0.0      0.5    Al
O          0.5     0.25 0.5665418     O
Al         0.5      0.5      0.5    Al
Al         0.5      1.0      0.5    Al
O      0.57336 -0.08421700000000001  0.61178     O
O      0.57336 0.08421700000000001 0.38838000000000006     O
O      0.57336 0.41581700000000005 0.38838000000000006     O
O      0.57336 0.584217  0.61178     O
C      0.60047     0.25  0.36201     C
C      0.60047 0.7500000000000001  0.63801     C
C      0.67207     0.25  0.29221     C
C      0.67207 0.7500000000000001  0.70781     C
F     0.6724512562798548 -0.11038558507359206 0.29019520677524846     F
C      0.70685 0.069413  0.26171     C
C      0.70685 0.930613  0.73831     C
H     0.707692 0.436429 0.653006     H
H     0.707692 0.5635710000000002 0.346994     H
C      0.72415 0.431813  0.29739     C
C      0.72415 0.568213  0.70279     C
C      0.77595 0.068213  0.20279     C
C      0.77595 0.9318130000000001  0.79739     C
H     0.792308 -0.0635708 0.153006     H
H     0.792308  1.06357 0.8469940000000001     H
C      0.79325 0.4306130000000001  0.23831     C
C      0.79325 0.569413  0.76171     C
H     0.820471 0.426391 0.784358     H
H     0.820471 0.5736090000000001 0.215642     H
C      0.82807     0.25 0.20781000000000002     C
C      0.82807 0.7500000000000001  0.79221     C
C      0.89967     0.25  0.13801     C
C      0.89967 0.7500000000000001  0.86201     C
Al         1.0      0.0      0.0    Al
Al         1.0      0.5      0.0    Al
Al         1.0      0.5      1.0    Al
Al         1.0      1.0      1.0    Al
