data_I
_chemical_name_common  '/home/zhangsd/repos/MofS-CGCNN/ML/data/WS24/clean_cifs/mil-47-'
_cell_length_a  6.81790
_cell_length_b 13.93900
_cell_length_c 16.14300
_cell_angle_alpha 90.00000
_cell_angle_beta  90.00000
_cell_angle_gamma 90.00000
_space_group_name_H-M_alt      'P 1'


loop_
_space_group_symop_operation_xyz
  'x, y, z' 

loop_
_atom_site_label
_atom_site_fract_x
_atom_site_fract_y
_atom_site_fract_z
_atom_site_type_symbol
F     -0.3373846343182573 0.07253085178910564 0.5655826867714858     F
F     -0.3373846343182573 0.07253085178910564 0.9344173132285143     F
C       0.0089    0.065   0.5649     C
C       0.0089    0.065   0.9351     C
C       0.0219   0.1333   0.6366     C
C       0.0219   0.1333   0.8634     C
O       0.0249   0.3084     0.75     O
O       0.1415   0.8335   0.1626     O
O       0.1415   0.8335   0.3374     O
C       0.1675 0.9631000000000001   0.0323     C
C       0.1675 0.9631000000000001   0.4677     C
C       0.1775 0.026100000000000005   0.5329     C
C       0.1775 0.026100000000000005   0.9671     C
O       0.1882   0.1555   0.6632     O
O       0.1882   0.1555   0.8368     O
V       0.2002  0.73916     0.25     V
H       0.2015 0.5425000000000001 0.05539999999999999     H
H       0.2015 0.5425000000000001   0.4446     H
H        0.217 0.43890000000000007   0.5548     H
H        0.217 0.43890000000000007   0.9452     H
H        0.283 0.9389000000000001   0.0548     H
H        0.283 0.9389000000000001 0.44519999999999993     H
H       0.2985 0.04250000000000001   0.5554     H
H       0.2985 0.04250000000000001   0.9446     H
V       0.2998  0.23916     0.75     V
O       0.3118   0.6555   0.1632     O
O       0.3118   0.6555 0.33679999999999993     O
C       0.3225 0.5261000000000001   0.0329     C
C       0.3225 0.5261000000000001 0.46709999999999996     C
C       0.3325 0.46310000000000007   0.5323     C
C       0.3325 0.46310000000000007   0.9677     C
O     0.35850000000000004 0.3335000000000001   0.6626     O
O     0.35850000000000004 0.3335000000000001   0.8374     O
O     0.4751000000000001 0.8084000000000001     0.25     O
C     0.4781000000000001 0.6333000000000001   0.1366     C
C     0.4781000000000001 0.6333000000000001 0.36339999999999995     C
C       0.4911    0.565   0.0649     C
C       0.4911    0.565   0.4351     C
C       0.5089 0.43500000000000005   0.5649     C
C       0.5089 0.43500000000000005   0.9351     C
C       0.5219 0.3667000000000001   0.6366     C
C       0.5219 0.3667000000000001   0.8634     C
O       0.5249   0.1916     0.75     O
O       0.6415 0.6665000000000001   0.1626     O
O       0.6415 0.6665000000000001   0.3374     O
C       0.6675   0.5369   0.0323     C
C       0.6675   0.5369   0.4677     C
C       0.6775 0.47390000000000004   0.5329     C
C       0.6775 0.47390000000000004   0.9671     C
O       0.6882 0.34450000000000003   0.6632     O
O       0.6882 0.34450000000000003   0.8368     O
V       0.7002 0.7608400000000001     0.25     V
H       0.7015 0.9575000000000001 0.05539999999999999     H
H       0.7015 0.9575000000000001   0.4446     H
H        0.783   0.5611   0.0548     H
H        0.783   0.5611 0.44519999999999993     H
V       0.7998 0.26084000000000007     0.75     V
O       0.8118 0.8445000000000001   0.1632     O
O       0.8118 0.8445000000000001 0.33679999999999993     O
C       0.8225 0.9739000000000001   0.0329     C
C       0.8225 0.9739000000000001 0.46709999999999996     C
C     0.8325000000000001   0.0369   0.5323     C
C     0.8325000000000001   0.0369   0.9677     C
F     0.8558187227188079 0.44983795510905233 0.9339522867062461     F
F     0.855818722718808 0.44983795510905233 0.5660477132937538     F
O       0.8585   0.1665   0.6626     O
O       0.8585   0.1665   0.8374     O
O       0.9751   0.6916     0.25     O
C       0.9781   0.8667   0.1366     C
C       0.9781   0.8667 0.36339999999999995     C
C       0.9911 0.9350000000000002   0.0649     C
C       0.9911 0.9350000000000002   0.4351     C
