data_I
_chemical_name_common  '/home/zhangsd/repos/MofS-CGCNN/ML/data/WS24/clean_cifs/mil-100-cr'
_cell_length_a 51.55210
_cell_length_b 51.55210
_cell_length_c 51.55210
_cell_angle_alpha 60.00000
_cell_angle_beta  60.00000
_cell_angle_gamma 60.00000
_space_group_name_H-M_alt      'P 1'


loop_
_space_group_symop_operation_xyz
  'x, y, z' 

loop_
_atom_site_label
_atom_site_fract_x
_atom_site_fract_y
_atom_site_fract_z
_atom_site_type_symbol
Cr    -1.14918e-06 0.500001   0.6546    Cr
O     -1.03095e-06    0.693 0.500001     O
F     -8.98219e-07 0.615001 0.500001     F
Cr    -8.50518e-07   0.6546 0.500001    Cr
O     -3.53497e-07 0.307001 0.500001     O
F     -2.50086e-07 0.499999 0.385001     F
O     -1.7261e-07      0.5 0.692999     O
Cr    5.38975e-07 0.345401   0.6546    Cr
Cr    5.56651e-07      0.5   0.3454    Cr
Cr    5.86009e-07 0.345399 0.500001    Cr
F     6.015e-07    0.385 0.615001     F
O     7.00015e-07 0.499999 0.307001     O
O     7.71215e-07    0.693 0.307001     O
Cr    8.0828e-07 0.654601   0.3454    Cr
O     1.69598e-06 0.306999 0.692999     O
C     0.0039998 0.239001   0.7176     C
C     0.00399991   0.7176   0.5394     C
C     0.00400023    0.239   0.5394     C
C     0.00400028 0.539399   0.7176     C
C     0.00400036   0.5394    0.239     C
C     0.00400068   0.7176    0.239     C
F     0.00439981 0.788401 0.918799     F
C     0.0048994 0.722899 0.563901     C
C     0.00489959   0.5639   0.7229     C
C     0.00490005   0.2083 0.563901     C
C     0.00490018 0.722901   0.2083     C
C     0.00490066   0.2083   0.7229     C
C     0.00490088 0.563899   0.2083     C
C     0.00619859 0.619201   0.1532     C
C     0.00619939   0.1532 0.619199     C
C     0.00619954   0.6192 0.721401     C
C     0.00620064 0.153199 0.721401     C
C     0.00620069   0.7214 0.619199     C
C     0.006201   0.7214   0.1532     C
H     0.0064669 0.129551 0.729317     H
H     0.00646722 0.634666 0.729317     H
H     0.00646723  0.12955 0.634668     H
H     0.00646737 0.729315 0.634668     H
H     0.00646762 0.729317 0.129549     H
H     0.0064678 0.634667 0.129549     H
O       0.0112   0.8296   0.8296     O
Cr    0.0132999   0.8069 0.806899    Cr
Cr    0.0133013 0.806899   0.8729    Cr
Cr    0.0133014   0.8729 0.806899    Cr
O     0.0158986 0.114101 0.214701     O
O     0.0158986 0.155301   0.1141     O
O     0.015899   0.1141   0.1553     O
O     0.015899 0.155301 0.214701     O
O     0.0158991   0.2147   0.1141     O
O     0.0158999   0.2147   0.1553     O
O       0.0233 0.463101 0.739901     O
O     0.0233003   0.2737 0.739901     O
O     0.0233003 0.463101   0.2737     O
O     0.0233007 0.273699 0.463101     O
O     0.0233007   0.7399   0.2737     O
O     0.0233008 0.739899 0.463101     O
C     0.0237998 0.821401   0.2724     C
C     0.0238002   0.3824   0.2724     C
C     0.0238004 0.272399 0.821401     C
C     0.0238004   0.2724 0.382399     C
C     0.0238007 0.821401 0.382399     C
C     0.023801 0.382399 0.821401     C
C     0.0252999   0.7977 0.264501     C
C     0.0253004 0.264501   0.4125     C
C     0.0253004   0.4125 0.264501     C
C     0.0253005 0.264499 0.797701     C
C     0.0253005 0.412501 0.797701     C
C     0.0253011   0.7977   0.4125     C
H     0.0283344 0.401801 0.401802     H
H     0.0283345 0.401802 0.668063     H
H     0.0283345 0.668063 0.401802     H
C     0.0290995   0.1271   0.1271     C
C     0.0291005 0.127099 0.216701     C
C     0.0291011 0.216699   0.1271     C
O     0.0299992 0.706801   0.2432     O
O     0.0299995     0.52   0.7068     O
O     0.0299999 0.706799     0.52     O
O     0.0300002 0.243199   0.7068     O
O     0.0300009     0.52   0.2432     O
O     0.0300012   0.2432     0.52     O
C     0.0346995 0.188501   0.7057     C
C     0.0346995   0.7057   0.5711     C
C     0.0346996   0.5711   0.7057     C
C     0.0346997   0.7057 0.188501     C
C     0.0347007 0.188501   0.5711     C
C     0.034701 0.571099 0.188501     C
C     0.0351991 0.160401   0.7046     C
C     0.0351991   0.7046 0.599801     C
C     0.0351992 0.599801   0.7046     C
C     0.0351996   0.7046 0.160401     C
C     0.0351997   0.5998 0.160401     C
C     0.0352003 0.160399 0.599801     C
O     0.0369995 0.646201   0.4604     O
O     0.0369998 0.356401 0.646199     O
O     0.0369998 0.646201 0.356399     O
O     0.0369999 0.460401 0.646199     O
O     0.0370001   0.3564   0.4604     O
O     0.0370005   0.4604 0.356399     O
O     0.0372991 0.322101   0.6231     O
O     0.0372994   0.6231 0.322101     O
O     0.0373004 0.517501   0.6231     O
O     0.0373006   0.6231 0.517501     O
O     0.0373008 0.322099 0.517501     O
O     0.0373009 0.517499 0.322101     O
Cr    0.0433004   0.2767 0.483901    Cr
Cr    0.0433007 0.483899   0.2767    Cr
Cr    0.0433007 0.483901   0.6961    Cr
Cr    0.0433007   0.6961   0.2767    Cr
Cr    0.0433007   0.6961 0.483901    Cr
Cr    0.0433014   0.2767   0.6961    Cr
O     0.0434985 0.869101 0.822301     O
O     0.0434989   0.7651 0.869101     O
O     0.0434992 0.869099 0.765101     O
O     0.0434993 0.822299 0.869101     O
O     0.0434995 0.765099 0.822301     O
O     0.0434995   0.8223 0.765101     O
O     0.0475988 0.848601 0.329601     O
O     0.047599   0.2742 0.848601     O
O     0.0475991   0.8486 0.274201     O
O     0.0475997 0.329599 0.848601     O
O     0.0476007 0.274199 0.329601     O
O     0.0476007 0.329599 0.274201     O
H     0.0487818 0.249308  0.78457     H
H     0.0487821  0.24931 0.417339     H
H     0.0487821  0.78457 0.249308     H
H     0.0487824 0.417339  0.78457     H
H     0.0487824 0.417341 0.249308     H
H     0.0487825 0.784569 0.417339     H
C     0.0506001   0.3886   0.3886     C
C     0.0506003 0.388601   0.6722     C
C     0.0506009 0.672199   0.3886     C
C     0.0510996 0.353701 0.823501     C
C     0.0511003 0.271701   0.3537     C
C     0.0511003   0.8235   0.3537     C
C     0.0511008 0.353701 0.271699     C
C     0.0511011 0.271699 0.823501     C
C     0.0511013   0.8235 0.271699     C
C     0.0567996 0.753601   0.8448     C
C     0.0568001   0.8448   0.7536     C
C     0.0568008   0.8448   0.8448     C
H     0.0571512 0.195073  0.69337     H
H     0.0571513 0.554408 0.195072     H
H     0.0571516 0.693369 0.195072     H
H     0.057152 0.195071 0.554408     H
H     0.0571531 0.554406  0.69337     H
H     0.0571532 0.693368 0.554408     H
C     0.0579988    0.441 0.338201     C
C     0.0579991    0.441 0.662801     C
C     0.0579993 0.662801 0.440999     C
C     0.0579994 0.338201 0.440999     C
C        0.058 0.338201 0.662801     C
C     0.0580008 0.662799 0.338201     C
H     0.0613074 0.146339 0.0626293     H
H     0.0613082 0.229725 0.0626293     H
C     0.0616996   0.6229   0.2941     C
C     0.0616998   0.2941 0.622901     C
C     0.0616999 0.521299 0.622901     C
C       0.0617   0.6229   0.5213     C
C     0.0617008   0.5213   0.2941     C
C     0.0617011   0.2941   0.5213     C
F       0.0625 0.896101 0.270699     F
H     0.0626289 0.0613071 0.229725     H
H     0.062629 0.146339 0.229725     H
H     0.0626297 0.0613079 0.146339     H
H     0.0626298 0.229724 0.146339     H
C     0.0628992 0.113901   0.1139     C
C     0.0629006   0.1139   0.2093     C
C     0.0629013 0.209299   0.1139     C
O     0.0632994 0.113701 0.689699     O
O     0.0632994 0.689699 0.113701     O
O     0.0633007   0.6333 0.113701     O
O     0.063301   0.6897 0.633299     O
O     0.0633014 0.633299 0.689699     O
O     0.0633015 0.113699 0.633299     O
C     0.0645998   0.6894    0.608     C
C     0.0646001 0.689401    0.138     C
C     0.0646002    0.138    0.608     C
C     0.0646002 0.607999   0.6894     C
C     0.0646002    0.608    0.138     C
C     0.0646005    0.138   0.6894     C
F     0.0651997 0.0651988   0.6848     F
O     0.065299 0.454501 0.307901     O
O     0.0652992 0.307901 0.672299     O
O     0.0652993 0.672299 0.307901     O
O     0.0652996   0.3079 0.454501     O
O     0.0652997   0.6723 0.454501     O
O       0.0653   0.4545 0.672299     O
H     0.0655753   0.3248 0.555178     H
H     0.0655762 0.555178 0.554446     H
H     0.0655766 0.554446   0.3248     H
C     0.0667992 0.675601   0.4026     C
C     0.0667996   0.4026    0.355     C
C     0.0667999   0.4026 0.675599     C
C     0.0668001 0.354999   0.4026     C
C     0.0668004 0.355001 0.675599     C
C     0.0668004   0.6756    0.355     C
O       0.0683 0.508099 0.273301     O
O       0.0683 0.650301   0.5081     O
O     0.0683001   0.5081   0.6503     O
O     0.0683002 0.273299   0.5081     O
O     0.0683006 0.650299 0.273301     O
O     0.068301 0.273299   0.6503     O
C     0.071901   0.2995   0.5643     C
C     0.0719011 0.564299   0.5643     C
C     0.0719011   0.5643   0.2995     C
C     0.0762991   0.5469 0.281901     C
C     0.0762993 0.546901   0.5949     C
C     0.0762996   0.2819 0.546901     C
C     0.0762997 0.594899 0.546901     C
C     0.0762998 0.594901 0.281901     C
C     0.076301 0.281899   0.5949     C
Cr    0.0773989   0.2866 0.849401    Cr
Cr    0.077399 0.849401   0.2866    Cr
C     0.0773991   0.1274 0.217801     C
C     0.0773994 0.0773994 0.217801     C
C       0.0774   0.2178 0.127399     C
C     0.0774001   0.2178 0.0773993     C
C     0.0774006 0.127401 0.0773993     C
Cr    0.0774008   0.2866   0.2866    Cr
C     0.0774009 0.0774003 0.127399     C
O     0.0796997   0.8013   0.2681     O
O     0.0797002 0.268101 0.350899     O
O     0.0797003 0.268099   0.8013     O
O     0.0797003   0.3509   0.2681     O
O     0.0797004 0.350901   0.8013     O
O     0.0797009   0.8013 0.350899     O
F     0.0812005   0.2116   0.9956     F
F     0.0822994 0.248699 0.466301     F
F       0.0823 0.702701   0.2487     F
C     0.0850999 0.701699 0.379701     C
C     0.0851002   0.3335 0.379701     C
C     0.0851004 0.379701   0.3335     C
C     0.0851006   0.3797 0.701699     C
C     0.0851009 0.701701   0.3335     C
C     0.0851014   0.3335 0.701699     C
C     0.0869989 0.842601   0.8426     C
C     0.0870007 0.727801   0.8426     C
C     0.0870017   0.8426 0.727799     C
H     0.0899151  0.30838 0.389942     H
H     0.0899155 0.308381 0.711763     H
H     0.0899155 0.389943 0.308378     H
H     0.0899164 0.711763 0.308378     H
H     0.0899167 0.711763 0.389942     H
H     0.0899174 0.389941 0.711763     H
O     0.0910991   0.6781   0.1411     O
O     0.0910992 0.141101   0.5897     O
O     0.0910993 0.141099 0.678101     O
O     0.0910997 0.589699   0.1411     O
O     0.0910998 0.589701 0.678101     O
O     0.0911003 0.678101   0.5897     O
H     0.0911788 0.796985 0.727362     H
H     0.0911794  0.72736 0.796985     H
H      0.09118 0.884474 0.796985     H
H     0.0911801 0.796985 0.884474     H
H     0.0911801 0.884474 0.727362     H
H     0.0911808  0.72736 0.884474     H
C       0.0922 0.557801   0.6056     C
C       0.0922 0.605601   0.5578     C
C     0.0922005 0.244401   0.6056     C
C     0.092201 0.244399   0.5578     C
C     0.092201   0.6056   0.2444     C
C     0.0922014 0.557799   0.2444     C
C     0.092999 0.591901 0.223201     C
C     0.0929992 0.591901 0.591899     C
C     0.0930001   0.2232 0.591899     C
Cr    0.0930988 0.0931012   0.6569    Cr
Cr    0.0930988   0.6569 0.0931006    Cr
Cr    0.0930999 0.656901   0.6569    Cr
C     0.0950999   0.3465   0.3465     C
C     0.0951003   0.3465 0.711901     C
C     0.0951009   0.7119   0.3465     C
C     0.103099 0.716899 0.864701     C
C       0.1031 0.716901   0.8153     C
C       0.1031 0.815299 0.864701     C
C       0.1031 0.815301 0.716899     C
C       0.1031 0.864701 0.716899     C
C       0.1031 0.864701   0.8153     C
H      0.10325 0.232287 0.541142     H
H     0.103251 0.232287 0.623321     H
H     0.103251 0.541141 0.232286     H
H     0.103251 0.623322 0.232286     H
H     0.103252 0.541141 0.623321     H
H     0.103252 0.623321 0.541142     H
O     0.104999 0.293201   0.8596     O
O     0.104999   0.8596   0.2422     O
O        0.105 0.242199   0.8596     O
O        0.105 0.242201   0.2932     O
O        0.105 0.859601   0.2932     O
O     0.105001   0.2932   0.2422     O
O       0.1062 0.294999 0.295001     O
O     0.106201    0.295 0.803799     O
O     0.106201 0.803799 0.295001     O
C       0.1075   0.3275 0.327501     C
C     0.107501   0.3275 0.737499     C
C     0.107501   0.7375 0.327501     C
O     0.109299 0.298301   0.7511     O
O     0.109299 0.751099 0.298301     O
O       0.1093   0.2983 0.341299     O
O       0.1093 0.341299 0.298301     O
O       0.1093   0.3413   0.7511     O
O       0.1093 0.751102 0.341299     O
C       0.1109   0.1909   0.5991     C
C       0.1109   0.5991   0.1909     C
C       0.1109 0.599101   0.5991     C
O     0.113699 0.689701 0.0632993     O
O       0.1137 0.0632994 0.689699     O
O       0.1137 0.633301 0.0632993     O
O     0.113701 0.0633002 0.633299     O
O     0.113701 0.633299 0.689699     O
O     0.113701   0.6897 0.633299     O
C     0.113899 0.0629007   0.2093     C
C     0.113899 0.209301 0.0629001     C
C       0.1139   0.1139 0.0629001     C
C       0.1139   0.1139   0.2093     C
C       0.1139 0.209299   0.1139     C
C     0.113901 0.0628991   0.1139     C
O     0.114099 0.155301 0.214701     O
O       0.1141 0.155301 0.0159008     O
O       0.1141   0.2147   0.1553     O
O     0.114101 0.0158999   0.1553     O
O     0.114101 0.0159001 0.214701     O
O     0.114101   0.2147 0.0159008     O
H     0.115524 0.272639 0.908821     H
H     0.115525 0.203015 0.908821     H
H     0.115525 0.203016  0.27264     H
H     0.115525 0.908819  0.27264     H
H     0.115526  0.90882 0.203014     H
H     0.115527 0.272639 0.203014     H
O       0.1195   0.1195 0.630501     O
O       0.1195   0.6305   0.1195     O
O     0.119501 0.630499 0.630501     O
O     0.122999   0.1796 0.577201     O
O        0.123   0.5772 0.179599     O
O        0.123   0.6202 0.577201     O
O        0.123 0.620201 0.179599     O
O     0.123001   0.1796 0.620199     O
O     0.123001 0.577202 0.620199     O
C       0.1249   0.3075 0.219901     C
C       0.1249 0.847701 0.219901     C
C     0.124901 0.219899   0.8477     C
C     0.124901 0.219901 0.307499     C
C     0.124901   0.3075   0.8477     C
C     0.124901 0.847701 0.307499     C
Cr    0.125999   0.2644   0.3288    Cr
Cr    0.125999   0.3288 0.264401    Cr
Cr       0.126 0.264401 0.780799    Cr
Cr       0.126   0.7808 0.264401    Cr
Cr       0.126   0.7808   0.3288    Cr
Cr    0.126001 0.328799 0.780799    Cr
C     0.127099 0.0291004 0.216701     C
C       0.1271 0.029101   0.1271     C
C       0.1271 0.127099 0.216701     C
C       0.1271   0.1271 0.0291005     C
Cr      0.1271   0.1931   0.1931    Cr
C       0.1271 0.216699 0.0291005     C
Cr    0.127101   0.1931   0.9867    Cr
C     0.127101 0.216699   0.1271     C
Cr    0.127101 0.986699   0.1931    Cr
C     0.127399 0.0773994 0.217801     C
C       0.1274   0.2178 0.0773993     C
C     0.127401 0.0774001 0.0773993     C
O     0.128999 0.226201 0.326999     O
O        0.129 0.226199 0.817799     O
O        0.129    0.327 0.226199     O
O        0.129   0.8178 0.226199     O
O     0.129001    0.327 0.817799     O
O     0.129001 0.817801 0.326999     O
H      0.12955 0.00646646 0.634668     H
H      0.12955 0.00646743 0.729317     H
H      0.12955 0.634666 0.729317     H
H     0.129551 0.634667 0.00646677     H
H     0.129551 0.729315 0.634668     H
H     0.129551 0.729317 0.00646677     H
O       0.1309   0.2349 0.177701     O
O       0.1309 0.234901   0.9565     O
O       0.1309 0.956501 0.177701     O
O     0.130901 0.177699   0.9565     O
O     0.130901   0.1777 0.234899     O
O     0.130901 0.956501 0.234899     O
C     0.133299   0.6935 0.811701     C
C       0.1333   0.6935 0.861501     C
C       0.1333 0.811699   0.6935     C
C       0.1333   0.8117 0.861501     C
C       0.1333   0.8615   0.6935     C
C       0.1333   0.8615 0.811701     C
F     0.134499 0.368299 0.235101     F
F       0.1345 0.368299   0.7621     F
Cr    0.134899   0.1349 0.646401    Cr
Cr    0.134899 0.134901 0.583801    Cr
Cr    0.134899 0.583801 0.134899    Cr
Cr      0.1349 0.583799 0.646401    Cr
Cr      0.1349   0.6464 0.583801    Cr
Cr      0.1349 0.646401 0.134899    Cr
C     0.135299 0.184701 0.283101     C
C     0.135299   0.2831   0.1847     C
C     0.135299 0.896899 0.283101     C
C       0.1353   0.2831   0.8969     C
C       0.1353 0.896901   0.1847     C
C     0.135301   0.1847   0.8969     C
C     0.137999 0.689399 0.0646012     C
C     0.137999   0.6894    0.608     C
C        0.138 0.0645997   0.6894     C
C        0.138 0.607999   0.6894     C
C        0.138    0.608 0.0646012     C
C     0.138001 0.0645993    0.608     C
C     0.138499 0.866701 0.306499     C
C       0.1385   0.1883 0.866699     C
C       0.1385 0.306501 0.866699     C
C     0.138501   0.1883 0.306499     C
C     0.138501 0.306501 0.188299     C
C     0.138501   0.8667 0.188299     C
O     0.140399 0.757801   0.7068     O
O       0.1404 0.706799   0.7578     O
O       0.1404 0.706799 0.895001     O
O       0.1404 0.757799 0.895001     O
O       0.1404    0.895   0.7068     O
O     0.140401    0.895   0.7578     O
O     0.141098 0.0911007 0.678101     O
O     0.141099 0.0911001   0.5897     O
O     0.141099   0.6781 0.0911002     O
O       0.1411 0.589699 0.0911002     O
O       0.1411 0.589701 0.678101     O
O       0.1411 0.678101   0.5897     O
F       0.1435 0.538901   0.1435     F
F     0.143501 0.674101 0.538899     F
H     0.146339 0.0613089 0.0626293     H
H     0.146339 0.0626286 0.229725     H
H     0.146339 0.229725 0.0626293     H
C       0.1475   0.8367 0.679101     C
C       0.1475 0.836701 0.836701     C
C     0.147501 0.679099 0.836701     C
Cr      0.1506 0.713399   0.7134    Cr
Cr      0.1506 0.922601   0.7134    Cr
Cr    0.150601   0.7134   0.9226    Cr
O       0.1514 0.670399 0.725801     O
O       0.1514 0.725799 0.670401     O
O       0.1514   0.9524 0.670401     O
O     0.151401   0.6704 0.952399     O
O     0.151401 0.725801 0.952399     O
O     0.151401 0.952399 0.725801     O
C     0.152299 0.692501 0.780101     C
C     0.152299 0.780101   0.6925     C
C     0.152299 0.875101   0.6925     C
C       0.1523 0.692499   0.8751     C
C       0.1523 0.780101   0.8751     C
C       0.1523 0.875099 0.780101     C
C     0.153199 0.00619874 0.721401     C
C     0.153199   0.7214 0.00620069     C
C       0.1532 0.00619989 0.619199     C
C       0.1532 0.619199 0.00620069     C
C       0.1532   0.6192 0.721401     C
C     0.153201   0.7214 0.619199     C
C       0.1552   0.1552   0.9432     C
C       0.1552 0.155201   0.2464     C
C       0.1552 0.246401   0.9432     C
C       0.1552 0.943199   0.1552     C
C       0.1552 0.943201   0.2464     C
C     0.155201   0.2464   0.1552     C
O     0.155299 0.0159006   0.1141     O
O     0.155299 0.114101 0.0159008     O
O     0.155299 0.114101 0.214701     O
O       0.1553 0.0159001 0.214701     O
O       0.1553   0.2147 0.0159008     O
O       0.1553   0.2147   0.1141     O
C       0.1574 0.157399 0.272201     C
C       0.1574   0.1574    0.913     C
C       0.1574   0.2722   0.1574     C
C       0.1574   0.2722    0.913     C
C       0.1574    0.913 0.272201     C
C       0.1574 0.913001   0.1574     C
C     0.160401 0.035199 0.599801     C
C     0.160401 0.0351991   0.7046     C
C     0.160401 0.599801 0.035199     C
C     0.160401 0.599801   0.7046     C
C     0.160401   0.7046 0.035199     C
C     0.160401   0.7046 0.599801     C
H     0.163155 0.163156 0.831904     H
H     0.163155 0.831904 0.341786     H
H     0.163155 0.831905 0.163154     H
H     0.163156 0.163155 0.341786     H
H     0.163156 0.341786 0.163154     H
H     0.163156 0.341786 0.831904     H
C     0.163299   0.1633 0.320901     C
C       0.1633   0.3209 0.163299     C
C       0.1633 0.320901 0.852499     C
C       0.1633   0.8525 0.320901     C
C     0.163301 0.163299 0.852499     C
C     0.163301   0.8525 0.163299     C
H     0.168094 0.658216 0.836846     H
H     0.168095 0.836844 0.658216     H
H     0.168095 0.836845 0.836846     H
O       0.1704   0.1704   0.9888     O
O       0.1704 0.988801   0.1704     O
O     0.170401 0.170399   0.1704     O
O     0.175999 0.299801   0.7686     O
O     0.175999 0.768601   0.2998     O
O        0.176 0.255599   0.7686     O
O        0.176 0.299801 0.255599     O
O        0.176 0.768601 0.255599     O
O     0.176001 0.255599   0.2998     O
C     0.176499 0.646301   0.7283     C
C       0.1765   0.6463   0.9489     C
C       0.1765 0.728301 0.646299     C
C       0.1765 0.948901 0.646299     C
C     0.176501   0.7283   0.9489     C
C     0.176501 0.948901   0.7283     C
O       0.1777 0.234899 0.130901     O
O       0.1777 0.234901   0.9565     O
O       0.1777   0.9565 0.130901     O
O       0.1777 0.956501 0.234899     O
O     0.177701 0.130899   0.9565     O
O     0.177701   0.1309 0.234899     O
C       0.1786 0.617602 0.976199     C
C       0.1786 0.976201   0.6176     C
C     0.178601   0.6176 0.727599     C
C     0.178601 0.727599   0.6176     C
C     0.178601 0.727602 0.976199     C
C     0.178601 0.976201 0.727599     C
O     0.179599   0.6202 0.577201     O
O     0.179599 0.620201 0.122999     O
O       0.1796    0.123 0.577201     O
O       0.1796 0.123001 0.620199     O
O       0.1796 0.577202 0.620199     O
O     0.179601   0.5772 0.122999     O
O       0.1822 0.672999 0.773801     O
O       0.1822    0.673 0.870999     O
O       0.1822   0.7738    0.673     O
O       0.1822 0.870999    0.673     O
O     0.182201 0.773801 0.870999     O
O     0.182201    0.871 0.773801     O
C     0.184699   0.8969 0.135301     C
C       0.1847   0.1353   0.8969     C
C       0.1847 0.135301 0.283101     C
C       0.1847   0.2831   0.8969     C
C       0.1847 0.896899 0.283101     C
C     0.184701 0.283099 0.135301     C
C     0.188299 0.306501 0.138501     C
C     0.188299 0.866701 0.306499     C
C       0.1883 0.138501 0.306499     C
C       0.1883 0.306501 0.866699     C
C     0.188301 0.138501 0.866699     C
C     0.188301 0.866699 0.138501     C
C     0.188499   0.5711   0.7057     C
C     0.188499   0.7057   0.5711     C
C       0.1885 0.0347001   0.5711     C
C       0.1885   0.5711 0.0347001     C
C     0.188501 0.0347003   0.7057     C
C     0.188501   0.7057 0.0347001     C
C       0.1909 0.110901   0.5991     C
C       0.1909 0.599101   0.1109     C
C       0.1909 0.599101   0.5991     C
C     0.192199 0.763001   0.2724     C
C       0.1922 0.272399   0.2724     C
C       0.1922 0.272399    0.763     C
Cr      0.1931   0.1271   0.1931    Cr
Cr      0.1931   0.1931   0.1271    Cr
Cr      0.1931   0.1931   0.9867    Cr
Cr      0.1931 0.986699   0.1931    Cr
Cr    0.193101   0.1271   0.9867    Cr
Cr    0.193101   0.9867   0.1271    Cr
H     0.195071 0.0571526  0.69337     H
H     0.195071 0.693369 0.0571532     H
H     0.195072 0.0571527 0.554408     H
H     0.195072 0.554406  0.69337     H
H     0.195072 0.554407 0.0571532     H
H     0.195072 0.693368 0.554408     H
O       0.1962 0.893801 0.704999     O
O     0.196201    0.705 0.704999     O
O     0.196201 0.705001 0.893799     O
O     0.198699 0.649101   0.7319     O
O     0.198699 0.731901   0.6491     O
O       0.1987 0.731899 0.920301     O
O       0.1987 0.920301   0.7319     O
O     0.198701   0.6491 0.920301     O
O     0.198701 0.920301   0.6491     O
C     0.202299   0.5875 0.735501     C
C     0.202299   0.9747 0.735501     C
C       0.2023   0.7355   0.9747     C
C       0.2023 0.735501   0.5875     C
C     0.202301   0.5875   0.9747     C
C     0.202301 0.974701   0.5875     C
H     0.203014 0.272639 0.908821     H
H     0.203015 0.115524  0.27264     H
H     0.203015 0.272639 0.115525     H
H     0.203015 0.908819  0.27264     H
H     0.203016 0.115526 0.908821     H
H     0.203016  0.90882 0.115525     H
C     0.208299 0.00489921 0.563901     C
C     0.208299   0.5639 0.00490116     C
C     0.208299 0.722899 0.563901     C
C     0.208299   0.7229 0.00490116     C
C       0.2083 0.0048994   0.7229     C
C       0.2083   0.5639   0.7229     C
C     0.209299 0.113901   0.1139     C
C     0.209301 0.0628991   0.1139     C
C     0.209301   0.1139 0.0629001     C
F       0.2116   0.2116 0.0812005     F
F       0.2116   0.9956   0.2116     F
O     0.214699 0.0159006   0.1141     O
O     0.214699 0.114101 0.0159008     O
O     0.214699 0.155301 0.0159008     O
O     0.214699 0.155301   0.1141     O
O       0.2147 0.0158999   0.1553     O
O       0.2147   0.1141   0.1553     O
H     0.215429 0.582661 0.750692     H
H      0.21543 0.582661 0.951219     H
H      0.21543 0.750692  0.58266     H
H      0.21543 0.750692 0.951219     H
H      0.21543 0.951218 0.750692     H
H      0.21543 0.951219  0.58266     H
C       0.2167 0.029101   0.1271     C
C       0.2167   0.1271   0.1271     C
C     0.216701   0.1271 0.0291005     C
C       0.2178 0.127401 0.0773993     C
C     0.217801 0.0774001 0.0773993     C
C     0.217801 0.0774003 0.127399     C
Cr      0.2192   0.6712 0.735601    Cr
Cr      0.2192 0.735601 0.671199    Cr
Cr      0.2192    0.874 0.735601    Cr
Cr      0.2192 0.874001 0.671199    Cr
Cr    0.219201   0.6712    0.874    Cr
Cr    0.219201 0.735601    0.874    Cr
C       0.2199 0.124899   0.8477     C
C       0.2199 0.124901 0.307499     C
C       0.2199   0.3075   0.8477     C
C       0.2199 0.847701   0.1249     C
C       0.2199 0.847701 0.307499     C
C     0.219901   0.3075   0.1249     C
C       0.2232 0.591901 0.591899     C
C     0.223201 0.0930009 0.591899     C
C     0.223201 0.591899 0.0930008     C
C     0.223799 0.267401   0.7414     C
C       0.2238 0.267401 0.267399     C
C       0.2238   0.7414 0.267399     C
O       0.2262    0.327 0.817799     O
O       0.2262 0.817801 0.326999     O
O     0.226201    0.129 0.326999     O
O     0.226201    0.129 0.817799     O
O     0.226201    0.327    0.129     O
O     0.226201   0.8178    0.129     O
H     0.228849  0.22885 0.311393     H
H     0.228849 0.311393  0.22885     H
H     0.228849 0.730908  0.22885     H
H      0.22885  0.22885 0.730907     H
H      0.22885 0.730908 0.311393     H
H     0.228851 0.311393 0.730907     H
H     0.229723 0.146339 0.0626293     H
H     0.229724 0.0613089 0.0626293     H
H     0.229724 0.0626294 0.146339     H
O     0.231399 0.700201    0.824     O
O     0.231399 0.744401    0.824     O
O     0.231399 0.824001   0.7002     O
O     0.231399 0.824001 0.744401     O
O       0.2314 0.700201 0.744401     O
O     0.231401   0.7444   0.7002     O
H     0.232286 0.623321 0.103252     H
H     0.232286 0.623321 0.541142     H
H     0.232287  0.10325 0.623321     H
H     0.232287 0.103252 0.541142     H
H     0.232287 0.541141 0.623321     H
H     0.232287 0.541142 0.103252     H
O     0.234899 0.956501 0.177701     O
O       0.2349   0.1309 0.177701     O
O       0.2349 0.177699 0.130901     O
O       0.2349   0.9565 0.130901     O
O     0.234901 0.130899   0.9565     O
O     0.234901 0.177699   0.9565     O
F       0.2351 0.134501 0.368299     F
F     0.235101 0.762101 0.368299     F
C     0.236999 0.727601   0.8078     C
C        0.237 0.807801 0.727599     C
C     0.237001   0.7276 0.727599     C
F       0.2379 0.865499 0.764901     F
F     0.237901   0.6317 0.865499     F
F     0.237901 0.764899   0.6317     F
C     0.238499 0.736899 0.238501     C
C       0.2385 0.238499 0.286101     C
C       0.2385 0.238499 0.736901     C
C       0.2385   0.2861 0.238501     C
C       0.2385 0.286101 0.736901     C
C       0.2385   0.7369 0.286101     C
C        0.239   0.5394 0.00400075     C
C     0.239001 0.00399922   0.5394     C
C     0.239001 0.00400072   0.7176     C
C     0.239001 0.539399   0.7176     C
C     0.239001   0.7176 0.00400075     C
C     0.239001   0.7176   0.5394     C
O     0.242199    0.105   0.2932     O
O     0.242199 0.293199 0.105001     O
O       0.2422    0.105   0.8596     O
O       0.2422 0.293201   0.8596     O
O       0.2422   0.8596 0.105001     O
O     0.242201 0.859601   0.2932     O
O     0.243199     0.52 0.0300009     O
O     0.243199     0.52   0.7068     O
O       0.2432 0.0299999     0.52     O
O       0.2432 0.706799     0.52     O
O       0.2432 0.706801 0.0300009     O
O     0.243201 0.0299995   0.7068     O
C     0.244399 0.557801   0.6056     C
C     0.244399 0.605601   0.5578     C
C       0.2444 0.0922003   0.5578     C
C       0.2444 0.605601 0.0922002     C
C     0.244401 0.0921991   0.6056     C
C     0.244401 0.557799 0.0922002     C
C       0.2464 0.155199   0.1552     C
C     0.246401   0.1552   0.9432     C
C     0.246401 0.943199   0.1552     C
F       0.2487 0.082301 0.702699     F
F       0.2487   0.4663 0.702699     F
F       0.2487   0.7027 0.0823005     F
O     0.248899   0.6587 0.890701     O
O       0.2489 0.701699 0.890701     O
O       0.2489 0.701701 0.658701     O
O       0.2489 0.890699 0.658701     O
O       0.2489 0.890701 0.701699     O
O     0.248901   0.6587 0.701699     O
H     0.249309 0.0487818  0.78457     H
H     0.249309 0.0487829 0.417339     H
H     0.249309 0.417341 0.0487811     H
H     0.249309  0.78457 0.0487811     H
H      0.24931 0.417339  0.78457     H
H      0.24931 0.784569 0.417339     H
O       0.2556 0.176001   0.2998     O
O       0.2556 0.176001   0.7686     O
O       0.2556 0.768601    0.176     O
O       0.2556 0.768601   0.2998     O
O     0.255601   0.2998    0.176     O
O     0.255601 0.299801   0.7686     O
C       0.2586   0.7326   0.7762     C
C       0.2586 0.732601   0.7326     C
C       0.2586   0.7762   0.7326     C
O     0.260099   0.5369 0.976701     O
O     0.260099 0.726301 0.976701     O
O     0.260099 0.976699 0.536901     O
O     0.260099 0.976701   0.7263     O
O       0.2601   0.5369   0.7263     O
O       0.2601 0.726299 0.536901     O
C     0.262499   0.6725 0.672501     C
C       0.2625   0.8925 0.672501     C
C     0.262501 0.672501   0.8925     C
C       0.2631   0.7139 0.761501     C
C       0.2631   0.7615 0.761501     C
C     0.263101 0.761499 0.713901     C
Cr    0.264399 0.126001   0.3288    Cr
Cr      0.2644 0.328799    0.126    Cr
Cr      0.2644   0.7808   0.3288    Cr
Cr      0.2644 0.780801    0.126    Cr
Cr    0.264401 0.125999 0.780799    Cr
Cr    0.264401 0.328799 0.780799    Cr
C     0.264499 0.025301 0.797701     C
C     0.264499 0.412501 0.797701     C
C       0.2645 0.0253005   0.4125     C
C       0.2645 0.412501 0.0252993     C
C       0.2645   0.7977   0.4125     C
C       0.2645 0.797701 0.0252993     C
C     0.267399 0.267401   0.7414     C
C       0.2674 0.223799 0.267399     C
C       0.2674 0.267399   0.2238     C
C       0.2674   0.7414 0.267399     C
C       0.2674 0.741401   0.2238     C
C     0.267401 0.223799   0.7414     C
O       0.2681 0.0796993   0.8013     O
O       0.2681 0.0797009 0.350899     O
O       0.2681 0.350901 0.079699     O
O       0.2681 0.350901   0.8013     O
O       0.2681 0.801301 0.079699     O
O     0.268101   0.8013 0.350899     O
H     0.269093 0.688608 0.771149     H
H     0.269093  0.77115 0.771149     H
H     0.269093 0.771152 0.688606     H
H     0.270682 0.365335  0.87045     H
H     0.270682 0.870451 0.365334     H
H     0.270683 0.365335 0.993533     H
H     0.270683  0.87045 0.993533     H
H     0.270683 0.993532 0.365334     H
H     0.270683 0.993533  0.87045     H
F       0.2707 0.0624989 0.896101     F
F     0.270701 0.270699 0.896101     F
C     0.271698 0.0511007 0.823501     C
C     0.271699 0.823501 0.0510998     C
C       0.2717 0.353701 0.0510998     C
C       0.2717 0.353701 0.823501     C
C       0.2717   0.8235   0.3537     C
C     0.271701 0.0511004   0.3537     C
C       0.2722   0.1574   0.1574     C
C       0.2722   0.1574    0.913     C
C       0.2722 0.913001   0.1574     C
C     0.272399 0.0238002 0.821401     C
C     0.272399 0.023801 0.382399     C
C     0.272399   0.3824 0.0238002     C
C     0.272399 0.763001   0.2724     C
C     0.272399 0.821401 0.0238002     C
C       0.2724   0.1922    0.763     C
C       0.2724 0.272399    0.763     C
C       0.2724 0.382399 0.821401     C
C       0.2724 0.763001   0.1922     C
C       0.2724 0.821401 0.382399     C
C     0.272401 0.192201   0.2724     C
C     0.272401   0.2724   0.1922     C
H     0.272638 0.115526 0.908821     H
H     0.272639 0.115525 0.203014     H
H     0.272639 0.203015 0.115525     H
H     0.272639  0.90882 0.115525     H
H      0.27264 0.203015 0.908821     H
H     0.272641  0.90882 0.203014     H
O       0.2733 0.0682993   0.5081     O
O       0.2733   0.5081   0.6503     O
O       0.2733 0.508101 0.0683002     O
O       0.2733 0.650301 0.0683002     O
O       0.2733 0.650301   0.5081     O
O     0.273301 0.0682995   0.6503     O
O     0.273699 0.463101 0.739901     O
O       0.2737 0.0232996 0.463101     O
O       0.2737 0.0232999 0.739901     O
O       0.2737 0.463102 0.0232989     O
O       0.2737 0.739899 0.463101     O
O     0.273701   0.7399 0.0232989     O
O     0.274199 0.0476004 0.329601     O
O     0.274199 0.848601 0.329601     O
O       0.2742 0.0475992 0.848601     O
O       0.2742 0.329599 0.848601     O
O       0.2742   0.3296 0.0476004     O
O       0.2742   0.8486 0.0476004     O
Cr    0.276699 0.0433008 0.483901    Cr
Cr      0.2767 0.0433007   0.6961    Cr
Cr      0.2767   0.4839 0.0433003    Cr
Cr      0.2767 0.483901   0.6961    Cr
Cr      0.2767   0.6961 0.483901    Cr
Cr      0.2767 0.696101 0.0433003    Cr
C     0.277099 0.791701 0.436101     C
C       0.2771   0.4361 0.791699     C
C       0.2771 0.436101 0.995101     C
C     0.277101   0.7917 0.995101     C
C     0.277101 0.995099 0.436101     C
C     0.277101   0.9951 0.791699     C
C     0.278599   0.8468 0.993801     C
C     0.278599 0.846801 0.380801     C
C     0.278599 0.993801   0.8468     C
C       0.2786 0.380799 0.993801     C
C       0.2786   0.3808   0.8468     C
C     0.278601 0.993799 0.380801     C
C     0.281899 0.546901   0.5949     C
C     0.281899 0.594901 0.0762993     C
C       0.2819 0.0762992   0.5949     C
C       0.2819 0.0762996 0.546901     C
C       0.2819 0.546901 0.0762993     C
C       0.2819 0.594899 0.546901     C
C     0.282399   0.4606 0.996001     C
C     0.282399 0.460601    0.761     C
C       0.2824 0.760999 0.460599     C
C       0.2824 0.761001 0.996001     C
C       0.2824    0.996 0.460599     C
C     0.282401    0.996    0.761     C
C     0.283099   0.1353   0.1847     C
C     0.283099 0.184699 0.135301     C
C       0.2831 0.896901   0.1847     C
C     0.283101   0.1847   0.8969     C
C     0.283101   0.8969 0.135301     C
C     0.283102   0.1353   0.8969     C
C     0.286099 0.238501 0.238501     C
C       0.2861 0.238499 0.736901     C
C       0.2861 0.736899 0.238501     C
Cr    0.286599   0.2866 0.849401    Cr
Cr    0.286599 0.849401   0.2866    Cr
Cr      0.2866 0.0774003 0.849401    Cr
Cr      0.2866 0.0774004   0.2866    Cr
Cr      0.2866   0.2866 0.0773993    Cr
Cr      0.2866 0.849401 0.0773993    Cr
C       0.2881 0.653501   0.6535     C
C     0.288101 0.653499 0.904901     C
C     0.288101   0.9049   0.6535     C
H     0.288236  0.69162 0.910085     H
H     0.288236 0.910084  0.61006     H
H     0.288236 0.910085 0.691621     H
H     0.288237 0.610058 0.910085     H
H     0.288237 0.610059 0.691621     H
H     0.288237 0.691621  0.61006     H
O     0.293199   0.8596   0.2422     O
O       0.2932 0.104999   0.2422     O
O       0.2932    0.105   0.8596     O
O       0.2932 0.242199 0.105001     O
O       0.2932 0.242199   0.8596     O
O       0.2932     0.48 0.970001     O
O       0.2932 0.480001   0.7568     O
O     0.293201 0.756799     0.48     O
O     0.293201 0.756799 0.970001     O
O     0.293201   0.8596 0.105001     O
O     0.293201 0.969999     0.48     O
O     0.293201     0.97   0.7568     O
C     0.294099 0.521301 0.0617004     C
C       0.2941 0.0616999   0.5213     C
C       0.2941 0.521299 0.622901     C
C       0.2941   0.6229   0.5213     C
C       0.2941 0.622901 0.0617004     C
C     0.294101 0.0616998 0.622901     C
C       0.2943 0.428899 0.811501     C
C       0.2943 0.811501   0.4289     C
C       0.2943 0.811501   0.9653     C
C       0.2943 0.965299 0.811501     C
C       0.2943 0.965301   0.4289     C
C     0.294301 0.428899   0.9653     C
O     0.294999   0.1062 0.295001     O
O     0.294999 0.295001   0.1062     O
O        0.295    0.295 0.803799     O
O        0.295 0.803799 0.295001     O
O        0.295 0.803801   0.1062     O
O     0.295001 0.106199 0.803799     O
C     0.295399   0.4002 0.964801     C
C     0.295399 0.400201 0.839599     C
C     0.295399   0.8396 0.400201     C
C       0.2954   0.8396 0.964801     C
C       0.2954   0.9648 0.400201     C
C       0.2954 0.964801 0.839599     C
O     0.298299 0.109301   0.7511     O
O     0.298299 0.751101 0.109301     O
O       0.2983   0.3413 0.109301     O
C       0.2983 0.620299 0.914901     C
C       0.2983   0.6203   0.6665     C
C       0.2983 0.666501 0.620299     C
C       0.2983 0.666501 0.914901     C
C       0.2983 0.914901 0.620299     C
O     0.298301   0.1093 0.341299     O
O     0.298301   0.3413   0.7511     O
O     0.298301 0.751102 0.341299     O
C     0.298301 0.914899   0.6665     C
C       0.2995 0.0718996   0.5643     C
C       0.2995 0.564299   0.5643     C
C     0.299501   0.5643 0.0718995     C
O       0.2998 0.176001   0.7686     O
O       0.2998 0.255601    0.176     O
O       0.2998 0.768601    0.176     O
O     0.299801 0.176001 0.255599     O
O     0.299801 0.255599   0.7686     O
O     0.299801 0.768601 0.255599     O
Cr    0.303899 0.723302 0.516099    Cr
Cr      0.3039   0.5161 0.723299    Cr
Cr    0.303901 0.723301 0.956699    Cr
Cr    0.303901   0.9567 0.723299    Cr
Cr    0.303901 0.956701 0.516099    Cr
Cr    0.303902 0.516099 0.956699    Cr
C     0.306499   0.1883 0.138501     C
C       0.3065   0.1385 0.188299     C
C       0.3065 0.138501 0.866699     C
C       0.3065 0.866699 0.138501     C
C     0.306501   0.1883 0.866699     C
C     0.306502   0.8667 0.188299     C
H      0.30663 0.942848 0.445594     H
H     0.306631 0.445593 0.942849     H
H     0.306631 0.804928 0.445594     H
H     0.306631 0.804929 0.942849     H
H     0.306632 0.445594 0.804928     H
H     0.306633 0.942847 0.804928     H
O     0.306999 -4.48283e-07 0.500001     O
O     0.306999    0.693 0.500001     O
O        0.307 4.10055e-07 0.692999     O
O        0.307      0.5      0.0     O
O        0.307      0.5 0.692999     O
O        0.307    0.693      0.0     O
C     0.307499 0.847701 0.219901     C
C     0.307501 0.124899 0.219901     C
C     0.307501 0.124899   0.8477     C
C     0.307501 0.219899   0.8477     C
C     0.307501 0.219901   0.1249     C
C     0.307501 0.847701   0.1249     C
O       0.3079 0.0652991 0.454501     O
O       0.3079 0.0653005 0.672299     O
O       0.3079   0.6723 0.0652996     O
O     0.307901 0.454499 0.0652996     O
O     0.307901   0.4545 0.672299     O
O     0.307901   0.6723 0.454501     O
H     0.308378 0.0899163 0.389942     H
H     0.308378 0.711763 0.0899171     H
H     0.308379 0.089917 0.711763     H
H     0.308379 0.389941 0.0899171     H
H     0.308379 0.711763 0.389942     H
H      0.30838 0.389941 0.711763     H
O     0.310299 0.366701   0.9367     O
O       0.3103 0.366699 0.886301     O
O       0.3103   0.8863 0.366701     O
O       0.3103 0.936699 0.366701     O
O     0.310301 0.886299   0.9367     O
O     0.310301 0.936699 0.886301     O
C     0.310599 0.392001 0.935401     C
C       0.3106   0.9354    0.392     C
C       0.3106 0.935401    0.862     C
C     0.310601 0.391999    0.862     C
C     0.310601 0.861999    0.392     C
C     0.310601    0.862 0.935401     C
H     0.311392 0.730908  0.22885     H
H     0.311393  0.22885 0.730907     H
H     0.311394  0.22885  0.22885     H
C       0.3209   0.1633 0.163299     C
C     0.320901 0.163299 0.852499     C
C     0.320901   0.8525 0.163299     C
O     0.321899 0.858902 0.908899     O
O       0.3219   0.4103 0.908899     O
O       0.3219 0.858901   0.4103     O
O       0.3219   0.9089   0.8589     O
O     0.321901   0.4103   0.8589     O
O     0.321901 0.908899   0.4103     O
O     0.322099 0.623101 0.0372991     O
O       0.3221 0.0372993   0.6231     O
O       0.3221 0.0372995 0.517501     O
O       0.3221 0.517501   0.6231     O
O       0.3221   0.6231 0.517501     O
O     0.322101   0.5175 0.0372991     O
C     0.324399   0.5974 0.933201     C
C       0.3244 0.597401    0.645     C
C       0.3244    0.645 0.933201     C
C       0.3244   0.9332 0.597399     C
C     0.324401    0.645 0.597399     C
C     0.324401 0.933201    0.645     C
H       0.3248 0.0655756 0.555178     H
H       0.3248 0.554448 0.555178     H
H     0.324801 0.555177 0.0655752     H
F     0.325901   0.4611   0.8565     F
O     0.326999 0.226201    0.129     O
O        0.327    0.129 0.817799     O
O        0.327 0.226199 0.817799     O
O        0.327   0.8178    0.129     O
O        0.327   0.8178 0.226199     O
O     0.327001    0.129 0.226199     O
C       0.3275   0.1075 0.327501     C
C       0.3275   0.3275 0.737499     C
C       0.3275 0.327501   0.1075     C
C       0.3275   0.7375   0.1075     C
C       0.3275   0.7375 0.327501     C
C     0.327501   0.1075 0.737499     C
O     0.327699   0.5455   0.9347     O
O     0.327699 0.934699 0.545501     O
O     0.327699   0.9347 0.692101     O
O       0.3277   0.5455 0.692101     O
O       0.3277 0.692099   0.9347     O
O     0.327701 0.692099 0.545501     O
C     0.327799 0.611401   0.6114     C
C     0.327801   0.6114 0.949401     C
C     0.327801   0.9494   0.6114     C
Cr    0.328799    0.126 0.264401    Cr
Cr      0.3288 0.264401    0.126    Cr
Cr      0.3288   0.7808 0.264401    Cr
Cr    0.328801 0.264401 0.780799    Cr
Cr    0.328801 0.780801    0.126    Cr
Cr    0.328802 0.125999 0.780799    Cr
O     0.329599   0.2742 0.848601     O
O     0.329599 0.274201 0.0476004     O
O     0.329599   0.8486 0.274201     O
O       0.3296 0.0475993 0.274201     O
O       0.3296   0.8486 0.0476004     O
O     0.329601 0.0475992 0.848601     O
H     0.331938 0.598198   0.5982     H
H     0.331938   0.5982 0.971664     H
H     0.331938 0.971665   0.5982     H
C     0.333499 0.0851009 0.379701     C
C     0.333499 0.701702 0.0850991     C
C       0.3335 0.0851005 0.701699     C
C       0.3335   0.3797 0.0850991     C
C     0.333501 0.701699 0.379701     C
C     0.333502   0.3797 0.701699     C
C     0.337199 0.559001 0.942001     C
C     0.337199    0.942 0.661801     C
C       0.3372    0.559 0.661801     C
C       0.3372   0.6618    0.559     C
C       0.3372   0.6618 0.942001     C
C       0.3372 0.941999    0.559     C
C     0.338199    0.441 0.662801     C
C     0.338199 0.662801 0.440999     C
C       0.3382 0.0579997 0.662801     C
C     0.338201 0.0579999 0.440999     C
C     0.338201 0.441001 0.057999     C
C     0.338201   0.6628 0.057999     C
O     0.341299 0.298301   0.7511     O
O       0.3413 0.751099 0.298301     O
O       0.3413 0.751101 0.109301     O
O     0.341301   0.1093 0.298301     O
O     0.341301 0.109301   0.7511     O
O     0.341301 0.298299 0.109301     O
H     0.341785 0.163156 0.163154     H
H     0.341786 0.163156 0.831904     H
H     0.341786 0.831905 0.163154     H
Cr    0.343099 0.906901 0.906899    Cr
Cr      0.3431 0.343101 0.906899    Cr
Cr      0.3431   0.9069   0.3431    Cr
Cr    0.345399 -4.48283e-07 0.500001    Cr
Cr    0.345399 0.500001   0.6546    Cr
Cr    0.345399   0.6546 0.500001    Cr
Cr      0.3454 -7.46946e-07   0.6546    Cr
Cr      0.3454      0.5      0.0    Cr
Cr      0.3454   0.6546      0.0    Cr
C       0.3465 0.0950995   0.3465     C
C       0.3465   0.3465 0.095101     C
C       0.3465   0.3465 0.711901     C
C     0.346501 0.0950989 0.711901     C
C     0.346501 0.711899 0.095101     C
C     0.346501   0.7119   0.3465     C
O       0.3497 0.931701 0.726699     O
O     0.349701   0.4919 0.726699     O
O     0.349701 0.491901 0.931699     O
O     0.349701   0.7267   0.4919     O
O     0.349701   0.7267 0.931699     O
O     0.349701   0.9317   0.4919     O
O     0.350899 0.801301 0.079699     O
O       0.3509 0.0796993   0.8013     O
O     0.350901 0.079701   0.2681     O
O     0.350901   0.8013   0.2681     O
O     0.350902 0.268099   0.8013     O
O     0.350902   0.2681 0.079699     O
Cr      0.3536   0.4162   0.8651    Cr
Cr      0.3536 0.865101 0.416199    Cr
Cr    0.353601   0.8651   0.8651    Cr
C     0.353699 0.0511007 0.823501     C
C       0.3537 0.0511009 0.271699     C
C       0.3537 0.271699 0.823501     C
C       0.3537   0.8235 0.271699     C
C       0.3537 0.823501 0.0510998     C
C     0.353701   0.2717 0.0510998     C
O     0.353799 0.539601    0.963     O
O     0.353799 0.963001   0.5396     O
O     0.353801   0.5396   0.6436     O
O     0.353801   0.6436   0.5396     O
O     0.353801   0.6436    0.963     O
O     0.353801    0.963   0.6436     O
C     0.354998 0.675601 0.0668011     C
C     0.354999 0.066801 0.675599     C
C     0.354999 0.675601   0.4026     C
C        0.355   0.4026 0.675599     C
C        0.355 0.402601 0.0668011     C
C     0.355001 0.0667992   0.4026     C
O       0.3564 0.0370008   0.4604     O
O       0.3564   0.4604 0.0369998     O
O     0.356401 0.0370001 0.646199     O
O     0.356401 0.460401 0.646199     O
O     0.356401   0.6462 0.0369998     O
O     0.356401 0.646201   0.4604     O
H     0.365333 0.993534 0.270683     H
H     0.365334 0.270682 0.993533     H
H     0.365334 0.270684  0.87045     H
H     0.365334 0.993533  0.87045     H
H     0.365335  0.87045 0.993533     H
H     0.365335 0.870451 0.270683     H
O       0.3667 0.310299 0.886301     O
O       0.3667 0.310301   0.9367     O
O       0.3667 0.886299   0.9367     O
O       0.3667 0.886301   0.3103     O
O       0.3667 0.936699 0.886301     O
O       0.3667   0.9367   0.3103     O
F     0.368301 0.235099   0.1345     F
F     0.368301   0.7621   0.1345     F
O       0.3695 0.880499   0.8805     O
O     0.369501   0.3695   0.8805     O
O     0.369501   0.8805 0.369499     O
H     0.376678 0.458859  0.89675     H
H     0.376679 0.458858 0.767714     H
H     0.376679 0.767714  0.89675     H
H     0.376679 0.767715 0.458858     H
H     0.376679 0.896749 0.458858     H
H      0.37668 0.896749 0.767714     H
O     0.376899   0.4825 0.677901     O
O     0.376899 0.677899 0.482501     O
O     0.376899 0.962699 0.482501     O
O       0.3769 0.482499 0.962701     O
O       0.3769 0.677901 0.962701     O
O       0.3769 0.962699 0.677901     O
C       0.3771 0.478699 0.705899     C
C       0.3771 0.705899   0.4787     C
C       0.3771 0.938301 0.705899     C
C     0.377101 0.478701 0.938299     C
C     0.377101   0.7059 0.938299     C
C     0.377101 0.938299   0.4787     C
C     0.379699 0.701702 0.0850991     C
C       0.3797 0.0851005 0.701699     C
C       0.3797   0.3335 0.0850991     C
C       0.3797   0.3335 0.701699     C
C       0.3797 0.701701   0.3335     C
C     0.379701 0.0850999   0.3335     C
O     0.379799 0.820401 0.422801     O
O     0.379799    0.877 0.422801     O
O       0.3798 0.422799    0.877     O
O       0.3798 0.820401    0.877     O
O       0.3798    0.877 0.820401     O
O     0.379801 0.422799 0.820401     O
C     0.380799   0.2786 0.993801     C
C       0.3808 0.278599   0.8468     C
C       0.3808 0.846799 0.278601     C
C       0.3808   0.9938 0.278601     C
C     0.380801   0.8468 0.993801     C
C     0.380801 0.993801   0.8468     C
C       0.3824 0.0238007   0.2724     C
C       0.3824   0.2724 0.0238002     C
C       0.3824 0.821401 0.0238002     C
C       0.3824 0.821401   0.2724     C
C     0.382401 0.0238002 0.821401     C
C     0.382401 0.272399 0.821401     C
F        0.385 -4.48283e-07 0.500001     F
F        0.385      0.5      0.0     F
F        0.385 0.615001 0.500001     F
C       0.3886 0.388599 0.0506009     C
C       0.3886 0.388601   0.6722     C
C       0.3886   0.6722 0.0506009     C
C     0.388601 0.0505993   0.3886     C
C     0.388601 0.0505999   0.6722     C
C     0.388601 0.672199   0.3886     C
H      0.38994 0.711763 0.0899171     H
H     0.389941 0.089917 0.711763     H
H     0.389942 0.0899167 0.308378     H
H     0.389942 0.308378 0.0899171     H
H     0.389942 0.308381 0.711763     H
H     0.389943 0.711763 0.308378     H
C     0.391999 0.862001   0.3106     C
C        0.392 0.310599 0.935401     C
C        0.392   0.3106    0.862     C
C        0.392    0.862 0.935401     C
C        0.392 0.935401    0.862     C
C     0.392001   0.9354   0.3106     C
C     0.394399   0.7556   0.9078     C
C     0.394399 0.907801 0.442199     C
C       0.3944   0.4422   0.7556     C
C       0.3944   0.4422   0.9078     C
C       0.3944   0.7556 0.442199     C
C       0.3944   0.9078   0.7556     C
C     0.400199   0.9648   0.2954     C
C       0.4002 0.295399 0.964801     C
C       0.4002   0.8396 0.964801     C
C     0.400201   0.2954 0.839599     C
C     0.400201   0.8396   0.2954     C
C     0.400201 0.964801 0.839599     C
C       0.4009 0.809099   0.8891     C
C       0.4009   0.8891 0.809099     C
C     0.400901   0.4009 0.809099     C
C     0.400901 0.400901   0.8891     C
C     0.400901 0.809099 0.400899     C
C     0.400901 0.889101 0.400899     C
H       0.4018 0.0283357 0.401802     H
H       0.4018 0.401802 0.0283355     H
H     0.401801 0.401802 0.668063     H
H     0.401801 0.668063 0.401802     H
H     0.401802 0.0283345 0.668063     H
H     0.401802 0.668062 0.0283355     H
C     0.402599 0.066801    0.355     C
C     0.402599 0.675601 0.0668011     C
C       0.4026 0.066801 0.675599     C
C       0.4026 0.354999 0.0668011     C
C       0.4026   0.6756    0.355     C
C     0.402601 0.355001 0.675599     C
C     0.405099 0.453101   0.9237     C
C       0.4051   0.4531 0.718101     C
C       0.4051   0.7181   0.9237     C
C       0.4051 0.923699 0.718101     C
C       0.4051   0.9237 0.453099     C
C     0.405101   0.7181 0.453099     C
C     0.408099   0.7768 0.907001     C
C     0.408099    0.907 0.776801     C
C       0.4081   0.4081 0.776801     C
C       0.4081   0.4081 0.907001     C
C       0.4081 0.907001   0.4081     C
C     0.408101 0.776799   0.4081     C
O       0.4103 0.321901   0.8589     O
O       0.4103 0.858899 0.321901     O
O       0.4103   0.9089 0.321901     O
O     0.410301 0.321899 0.908899     O
O     0.410301 0.858902 0.908899     O
O     0.410302   0.9089   0.8589     O
C     0.412499 0.0253004 0.264501     C
C     0.412499 0.025301 0.797701     C
C     0.412499 0.797701 0.0252993     C
C       0.4125   0.2645 0.0252993     C
C       0.4125   0.7977 0.264501     C
C     0.412501 0.264499 0.797701     C
Cr      0.4162   0.3536   0.8651    Cr
Cr      0.4162   0.8651 0.353601    Cr
Cr      0.4162   0.8651   0.8651    Cr
H     0.417339 0.0487832 0.249308     H
H     0.417339  0.24931 0.0487811     H
H     0.417341 0.0487818  0.78457     H
H     0.417341 0.249308  0.78457     H
H     0.417341  0.78457 0.0487811     H
H     0.417341  0.78457 0.249308     H
O     0.422799 0.820401    0.877     O
O       0.4228   0.3798    0.877     O
O       0.4228    0.877 0.820401     O
O       0.4228 0.877001   0.3798     O
O     0.422801   0.3798 0.820401     O
O     0.422801 0.820399   0.3798     O
C     0.428899 0.965301   0.2943     C
C       0.4289 0.294301   0.9653     C
C       0.4289 0.811501   0.9653     C
C       0.4289 0.965299 0.811501     C
C     0.428901 0.294299 0.811501     C
C     0.428901   0.8115   0.2943     C
C       0.4357 0.435699   0.9281     C
C       0.4357   0.4357 0.700499     C
C       0.4357 0.700499   0.9281     C
C       0.4357   0.9281 0.435699     C
C       0.4357   0.9281 0.700499     C
C     0.435701   0.7005 0.435699     C
C     0.436099   0.7917 0.995101     C
C       0.4361 0.277101 0.791699     C
C       0.4361 0.791699 0.277099     C
C       0.4361   0.9951 0.791699     C
C     0.436101 0.277099 0.995101     C
C     0.436101   0.9951 0.277099     C
C     0.440999 0.338201 0.662801     C
C        0.441 0.0580005 0.338201     C
C        0.441 0.662799 0.338201     C
C     0.441001 0.0579997 0.662801     C
C     0.441002   0.3382 0.057999     C
C     0.441002   0.6628 0.057999     C
C       0.4422 0.394401   0.7556     C
C       0.4422 0.394401   0.9078     C
C       0.4422   0.7556   0.9078     C
C       0.4422 0.755601 0.394399     C
C       0.4422   0.9078 0.394399     C
C       0.4422   0.9078   0.7556     C
H     0.444821 0.934426 0.445554     H
H     0.444822 0.445553   0.6752     H
H     0.444822 0.445555 0.934424     H
H     0.444822 0.934425   0.6752     H
H     0.445554   0.6752 0.934424     H
H     0.445555 0.675199 0.444822     H
H     0.445592 0.306632 0.942849     H
H     0.445592 0.804929 0.942849     H
H     0.445593 0.804928 0.306632     H
H     0.445593 0.942847 0.804928     H
H     0.445593 0.942848 0.306632     H
H     0.445594 0.306632 0.804928     H
C     0.453099   0.4051 0.718101     C
C       0.4531   0.4051   0.9237     C
C       0.4531   0.7181   0.4051     C
C       0.4531   0.7181   0.9237     C
C       0.4531 0.923699 0.718101     C
C     0.453101   0.9237   0.4051     C
O       0.4545 0.0653007 0.307901     O
O       0.4545 0.307901 0.672299     O
O       0.4545 0.672299 0.307901     O
O     0.454501 0.0653005 0.672299     O
O     0.454501   0.3079 0.0652996     O
O     0.454501   0.6723 0.0652996     O
H     0.458858 0.767714  0.89675     H
H     0.458859 0.376678  0.89675     H
H     0.458859  0.37668 0.767714     H
H     0.458859 0.767714 0.376679     H
H     0.458859 0.896749 0.376679     H
H     0.458859 0.896749 0.767714     H
O       0.4604 0.0370012 0.356399     O
O       0.4604 0.356401 0.0369998     O
O       0.4604   0.6462 0.0369998     O
O     0.460401 0.0370001 0.646199     O
O     0.460401 0.356401 0.646199     O
O     0.460401 0.646201 0.356399     O
C     0.460599 0.282401 0.996001     C
C     0.460599    0.761   0.2824     C
C     0.460599 0.761001 0.996001     C
C       0.4606 0.282399    0.761     C
C       0.4606    0.996    0.761     C
C       0.4606 0.996001   0.2824     C
F     0.461101   0.8565   0.3259     F
F     0.461101   0.8565   0.8565     F
O       0.4631 0.0232999 0.739901     O
O       0.4631   0.2737 0.739901     O
O       0.4631   0.7399   0.2737     O
O     0.463101 0.0233003   0.2737     O
O     0.463101   0.2737 0.0232989     O
O     0.463101   0.7399 0.0232989     O
F       0.4663 0.0822995   0.2487     F
F       0.4663 0.702701   0.2487     F
C     0.478699 0.938302 0.377099     C
C       0.4787   0.3771 0.938299     C
C       0.4787 0.938301 0.705899     C
C     0.478701 0.377101 0.705899     C
C     0.478701   0.7059 0.938299     C
C     0.478702 0.705899 0.377099     C
O     0.479999   0.2932 0.970001     O
O         0.48 0.756799 0.970001     O
O         0.48     0.97   0.2932     O
O         0.48     0.97   0.7568     O
O     0.480001   0.2932   0.7568     O
O     0.480001   0.7568   0.2932     O
O       0.4825   0.3769 0.962701     O
O       0.4825 0.677901 0.962701     O
O       0.4825 0.962699 0.677901     O
O     0.482501 0.376899 0.677901     O
O     0.482501   0.6779   0.3769     O
O     0.482501   0.9627   0.3769     O
Cr      0.4839 0.0432989   0.2767    Cr
Cr      0.4839 0.0433007   0.6961    Cr
Cr      0.4839   0.2767   0.6961    Cr
Cr      0.4839 0.276701 0.0433003    Cr
Cr      0.4839   0.6961   0.2767    Cr
Cr      0.4839 0.696101 0.0433003    Cr
O       0.4919   0.3497 0.726699     O
O       0.4919   0.3497 0.931699     O
O       0.4919   0.7267   0.3497     O
O       0.4919   0.9317   0.3497     O
O       0.4919 0.931701 0.726699     O
O     0.491901   0.7267 0.931699     O
F     0.499999 -6.84421e-07 0.615001     F
O     0.499999 0.307001      0.0     O
O          0.5 -5.14706e-07 0.307001     O
Cr         0.5 6.42295e-07   0.3454    Cr
Cr         0.5 0.345399      0.0    Cr
Cr         0.5 0.345401   0.6546    Cr
F          0.5    0.385 0.615001     F
F          0.5 0.614999      0.0     F
Cr         0.5 0.654601   0.3454    Cr
O          0.5    0.693 0.307001     O
Cr    0.500001 -7.46946e-07   0.6546    Cr
O     0.500001 4.10055e-07 0.692999     O
O     0.500001 0.306999 0.692999     O
Cr    0.500001   0.6546      0.0    Cr
O     0.500001    0.693      0.0     O
O     0.508099 0.0683002 0.273301     O
O       0.5081 0.0682995   0.6503     O
O       0.5081 0.273299 0.0683002     O
O       0.5081 0.650299 0.273301     O
O       0.5081 0.650301 0.0683002     O
O     0.508101 0.273299   0.6503     O
Cr    0.516099 0.303901 0.956699    Cr
Cr    0.516099 0.956701   0.3039    Cr
Cr      0.5161 0.303901 0.723299    Cr
Cr      0.5161 0.723299   0.3039    Cr
Cr      0.5161 0.723301 0.956699    Cr
Cr      0.5161   0.9567 0.723299    Cr
O     0.517499 0.0372996 0.322101     O
O     0.517499 0.322101   0.6231     O
O     0.517499   0.6231 0.322101     O
O       0.5175 0.0372993   0.6231     O
O       0.5175 0.322101 0.0372991     O
O       0.5175 0.623101 0.0372991     O
O     0.519999 0.706801 0.0300009     O
O         0.52 0.0299996   0.2432     O
O         0.52 0.243199 0.0300009     O
O     0.520001 0.0299995   0.7068     O
O     0.520001 0.706801   0.2432     O
O     0.520002 0.243199   0.7068     O
C     0.521299 0.0617008   0.2941     C
C     0.521299 0.622901 0.0617004     C
C       0.5213 0.0616998 0.622901     C
C       0.5213 0.294099 0.0617004     C
C     0.521301   0.2941 0.622901     C
C     0.521301   0.6229   0.2941     C
O       0.5369 0.260099   0.7263     O
O       0.5369 0.726299 0.260101     O
O       0.5369 0.726301 0.976701     O
O       0.5369 0.976701 0.260101     O
O     0.536901 0.260099 0.976701     O
O     0.536901 0.976701   0.7263     O
F     0.538899 0.143501   0.6741     F
C       0.5394 0.00400072   0.7176     C
C       0.5394    0.239 0.00400075     C
C       0.5394 0.239001   0.7176     C
C       0.5394   0.7176 0.00400075     C
C     0.539401 0.00399935    0.239     C
C     0.539401   0.7176    0.239     C
O     0.539599    0.963   0.6436     O
O       0.5396 0.353799    0.963     O
O       0.5396   0.6436    0.963     O
O       0.5396 0.962999   0.3538     O
O     0.539601   0.3538   0.6436     O
O     0.539601   0.6436   0.3538     O
H      0.54114 0.623321 0.103252     H
H     0.541141  0.10325 0.623321     H
H     0.541141 0.232286 0.103252     H
H     0.541142 0.103251 0.232286     H
H     0.541142 0.232287 0.623321     H
H     0.541142 0.623322 0.232286     H
O       0.5455 0.327699 0.692101     O
O       0.5455 0.692101   0.3277     O
O       0.5455   0.9347 0.692101     O
O       0.5455 0.934701   0.3277     O
O     0.545501 0.327699   0.9347     O
O     0.545501 0.692099   0.9347     O
C     0.546899 0.594901 0.0762993     C
C     0.546899 0.594901 0.281901     C
C       0.5469 0.0762991 0.281901     C
C       0.5469 0.0762992   0.5949     C
C       0.5469   0.2819 0.0762993     C
C     0.546901 0.281899   0.5949     C
H     0.554405 0.195073  0.69337     H
H     0.554406 0.0571526  0.69337     H
H     0.554406 0.693369 0.0571532     H
H     0.554406 0.693369 0.195072     H
H     0.554407 0.0571519 0.195072     H
H     0.554407 0.195072 0.0571532     H
H     0.554447 0.0655756 0.555178     H
H     0.554448 0.555179   0.3248     H
H     0.555178 0.0655743   0.3248     H
H     0.555178   0.3248 0.0655752     H
H     0.555178   0.3248 0.554446     H
H     0.555178 0.554447 0.0655752     H
C     0.557799 0.244401   0.6056     C
C       0.5578 0.0921991   0.6056     C
C       0.5578   0.6056   0.2444     C
C       0.5578 0.605601 0.0922002     C
C     0.557801 0.0921996   0.2444     C
C     0.557801 0.244399 0.0922002     C
C        0.559 0.337199 0.661801     C
C        0.559   0.6618 0.337201     C
C        0.559    0.942 0.661801     C
C        0.559 0.942001 0.337201     C
C     0.559001   0.3372 0.942001     C
C     0.559001   0.6618 0.942001     C
C       0.5639   0.2083 0.00490116     C
C       0.5639   0.2083   0.7229     C
C       0.5639 0.722901   0.2083     C
C     0.563901 0.00489892   0.2083     C
C     0.563901 0.0048994   0.7229     C
C     0.563901   0.7229 0.00490116     C
C       0.5643 0.0718996   0.5643     C
C       0.5643 0.0718997   0.2995     C
C       0.5643   0.2995   0.5643     C
C       0.5643   0.5643   0.2995     C
C     0.564301   0.2995 0.0718995     C
C     0.564301   0.5643 0.0718995     C
C     0.571099 0.188501 0.0347001     C
C       0.5711 0.0346993 0.188501     C
C       0.5711 0.0347003   0.7057     C
C       0.5711   0.7057 0.0347001     C
C     0.571101 0.188501   0.7057     C
C     0.571101   0.7057 0.188501     C
O     0.577199 0.123001 0.620199     O
O     0.577199 0.620201 0.122999     O
O       0.5772 0.123001 0.179599     O
O       0.5772 0.179601 0.122999     O
O     0.577201   0.1796 0.620199     O
O     0.577201 0.620201 0.179599     O
H     0.582661  0.21543 0.750692     H
H     0.582661  0.21543 0.951219     H
H     0.582661 0.750691  0.21543     H
H     0.582661 0.750692 0.951219     H
H     0.582661 0.951218 0.750692     H
H     0.582662 0.951218  0.21543     H
Cr      0.5838   0.1349 0.646401    Cr
Cr    0.583801   0.1349 0.134899    Cr
Cr    0.583801 0.646401 0.134899    Cr
C       0.5875 0.202301   0.9747     C
C       0.5875   0.9747 0.735501     C
C     0.587501 0.202299 0.735501     C
C     0.587501   0.7355 0.202299     C
C     0.587501   0.7355   0.9747     C
C     0.587501 0.974701 0.202299     C
O     0.589699 0.0911007 0.678101     O
O       0.5897 0.141099 0.678101     O
O       0.5897   0.6781 0.0911002     O
O       0.5897   0.6781   0.1411     O
O     0.589701 0.0910995   0.1411     O
O     0.589701   0.1411 0.0911002     O
C       0.5919 0.0930009 0.591899     C
C       0.5919   0.2232 0.0930008     C
C       0.5919 0.591899 0.0930008     C
C       0.5919 0.591901 0.223201     C
C     0.591901 0.0929987 0.223201     C
C     0.591901   0.2232 0.591899     C
C       0.5949 0.0762991 0.281901     C
C       0.5949 0.0762996 0.546901     C
C       0.5949   0.2819 0.0762993     C
C       0.5949 0.546901 0.0762993     C
C     0.594901   0.2819 0.546901     C
C     0.594901   0.5469 0.281901     C
C     0.597399 0.324401    0.645     C
C     0.597399 0.645001   0.3244     C
C       0.5974   0.3244 0.933201     C
C       0.5974    0.645 0.933201     C
C       0.5974   0.9332   0.3244     C
C       0.5974 0.933201    0.645     C
H     0.598198 0.971664 0.331939     H
H     0.598198 0.971665   0.5982     H
H     0.598199 0.331937 0.971664     H
H     0.598199 0.331938   0.5982     H
H     0.598199 0.598199 0.331939     H
H     0.598199   0.5982 0.971664     H
C       0.5991 0.110901   0.5991     C
C     0.599101   0.1109   0.1909     C
C     0.599101   0.1909   0.1109     C
C     0.599101   0.1909   0.5991     C
C     0.599101   0.5991   0.1909     C
C     0.599101 0.599101   0.1109     C
C     0.599799 0.160401   0.7046     C
C     0.599799   0.7046 0.160401     C
C       0.5998 0.0352007 0.160401     C
C     0.599801 0.0351991   0.7046     C
C     0.599801 0.160401 0.035199     C
C     0.599801   0.7046 0.035199     C
C       0.6056 0.0922003   0.5578     C
C       0.6056 0.244399   0.5578     C
C       0.6056 0.557799   0.2444     C
C     0.605601 0.0921996   0.2444     C
C     0.605601 0.244399 0.0922002     C
C     0.605601 0.557799 0.0922002     C
C        0.608 0.0645997   0.6894     C
C        0.608 0.0646004    0.138     C
C        0.608 0.137999 0.0646012     C
C        0.608    0.138   0.6894     C
C        0.608 0.689399 0.0646012     C
C        0.608 0.689401    0.138     C
H     0.610058 0.288238 0.910085     H
H     0.610058  0.69162 0.910085     H
H     0.610058 0.910085 0.691621     H
H     0.610059 0.288236 0.691621     H
H     0.610059 0.691621 0.288237     H
H     0.610059 0.910085 0.288237     H
C     0.611399   0.3278 0.949401     C
C     0.611399   0.6114 0.949401     C
C     0.611399 0.611401   0.3278     C
C       0.6114   0.3278   0.6114     C
C       0.6114 0.949399   0.3278     C
C       0.6114   0.9494   0.6114     C
F     0.614999 -2.12144e-07 0.385001     F
F     0.614999    0.385      0.0     F
F     0.615001 0.499999 0.385001     F
C     0.617599 0.178601 0.727599     C
C     0.617599   0.7276 0.178601     C
C     0.617599 0.727602 0.976199     C
C       0.6176 0.976201 0.178601     C
C       0.6176 0.976201 0.727599     C
C     0.617601   0.1786 0.976199     C
C     0.619199   0.7214 0.00620069     C
C       0.6192 0.00619874 0.721401     C
C       0.6192 0.153199 0.721401     C
C       0.6192   0.7214   0.1532     C
C     0.619201 0.00620021   0.1532     C
C     0.619201 0.153199 0.00620069     C
O     0.620199    0.123 0.577201     O
O     0.620199   0.1796 0.577201     O
O       0.6202   0.5772 0.122999     O
O       0.6202   0.5772 0.179599     O
O     0.620201 0.123001 0.179599     O
O     0.620201 0.179601 0.122999     O
C     0.620299 0.298301   0.6665     C
C     0.620299 0.666501 0.914901     C
C       0.6203   0.2983 0.914901     C
C       0.6203 0.666499 0.298301     C
C       0.6203 0.914899   0.6665     C
C       0.6203 0.914901 0.298301     C
C     0.622899 0.0617008   0.2941     C
C       0.6229 0.294099 0.0617004     C
C       0.6229   0.2941   0.5213     C
C       0.6229   0.5213   0.2941     C
C     0.622901 0.0616999   0.5213     C
C     0.622901 0.521301 0.0617004     C
O     0.623099 0.0372996 0.322101     O
O       0.6231 0.322099 0.517501     O
O       0.6231 0.322101 0.0372991     O
O       0.6231 0.517499 0.322101     O
O     0.623101 0.0372995 0.517501     O
O     0.623101   0.5175 0.0372991     O
H      0.62332 0.103252 0.541142     H
H      0.62332 0.232287 0.541142     H
H      0.62332 0.541142 0.103252     H
H     0.623321 0.541141 0.232286     H
H     0.623322 0.232286 0.103252     H
H     0.623323 0.103251 0.232286     H
O     0.630501   0.1195   0.1195     O
O     0.630501   0.1195 0.630501     O
O     0.630502   0.6305   0.1195     O
F     0.631701   0.7649 0.865499     F
O     0.633299 0.113701 0.689699     O
O     0.633299 0.689699 0.113701     O
O       0.6333 0.0632994 0.113701     O
O       0.6333 0.0632994 0.689699     O
O       0.6333   0.1137 0.0632993     O
O       0.6333 0.689701 0.0632993     O
H     0.634666 0.00646743 0.729317     H
H     0.634666 0.129551 0.729317     H
H     0.634667 0.00646815 0.129549     H
H     0.634667 0.729317 0.00646677     H
H     0.634667 0.729317 0.129549     H
H     0.634668 0.129549 0.00646677     H
O     0.643599 0.539601    0.963     O
O     0.643599 0.963001   0.5396     O
O       0.6436 0.539601   0.3538     O
O     0.643601 0.353801   0.5396     O
O     0.643602 0.353799    0.963     O
O     0.643602 0.962999   0.3538     O
C     0.644999   0.5974 0.933201     C
C        0.645   0.3244 0.933201     C
C        0.645   0.9332   0.3244     C
C        0.645   0.9332 0.597399     C
C     0.645001 0.324401 0.597399     C
C     0.645001 0.597399   0.3244     C
O       0.6462 0.0370008   0.4604     O
O       0.6462 0.0370012 0.356399     O
O       0.6462 0.356401 0.0369998     O
O       0.6462   0.4604 0.0369998     O
O     0.646201   0.3564   0.4604     O
O     0.646202   0.4604 0.356399     O
C     0.646299 0.948901   0.7283     C
C       0.6463 0.176499   0.7283     C
C       0.6463 0.176501   0.9489     C
C       0.6463   0.7283 0.176501     C
C       0.6463   0.7283   0.9489     C
C       0.6463   0.9489 0.176501     C
Cr    0.646399 0.134901 0.583801    Cr
Cr    0.646399 0.583801 0.134899    Cr
Cr    0.646401   0.1349 0.134899    Cr
O       0.6491   0.1987 0.920301     O
O     0.649101 0.198699   0.7319     O
O     0.649101 0.731899 0.920301     O
O     0.649101   0.7319   0.1987     O
O     0.649101   0.9203   0.1987     O
O     0.649101 0.920301   0.7319     O
O     0.650299 0.0683002 0.273301     O
O       0.6503 0.273299 0.0683002     O
O     0.650301 0.0682993   0.5081     O
O     0.650301 0.508099 0.273301     O
O     0.650301 0.508101 0.0683002     O
O     0.650302 0.273299   0.5081     O
C     0.653499   0.2881 0.904901     C
C       0.6535   0.2881   0.6535     C
C       0.6535 0.653499 0.288099     C
C       0.6535 0.653499 0.904901     C
C       0.6535   0.9049 0.288099     C
C       0.6535   0.9049   0.6535     C
Cr    0.654599 -4.48283e-07 0.500001    Cr
Cr      0.6546 0.345399 0.500001    Cr
Cr      0.6546      0.5      0.0    Cr
Cr      0.6546      0.5   0.3454    Cr
Cr    0.654601 6.42295e-07   0.3454    Cr
Cr    0.654601 0.345399      0.0    Cr
Cr    0.656899 0.0931012   0.6569    Cr
Cr    0.656899   0.6569 0.0931006    Cr
Cr      0.6569 0.0931001 0.0931006    Cr
H     0.658215 0.168096 0.836846     H
H     0.658215 0.836845 0.836846     H
H     0.658215 0.836846 0.168096     H
O       0.6587   0.2489 0.890701     O
O       0.6587 0.701701 0.248899     O
O     0.658701   0.2489 0.701699     O
O     0.658701 0.701699 0.890701     O
O     0.658701 0.890701 0.248899     O
O     0.658701 0.890701 0.701699     O
C     0.661799 0.942001 0.337201     C
C       0.6618   0.3372 0.942001     C
C       0.6618 0.337201    0.559     C
C     0.661801 0.558999 0.337201     C
C     0.661801 0.559001 0.942001     C
C     0.661802 0.941999    0.559     C
C     0.662799 0.0580005 0.338201     C
C     0.662799 0.338201 0.440999     C
C     0.662799    0.441 0.338201     C
C       0.6628 0.441001 0.057999     C
C     0.662801 0.0579999 0.440999     C
C     0.662801   0.3382 0.057999     C
C       0.6665   0.2983 0.914901     C
C       0.6665 0.914901 0.298301     C
C     0.666501   0.2983 0.620299     C
C     0.666501 0.620299 0.914901     C
C     0.666501   0.6203 0.298301     C
C     0.666501 0.914901 0.620299     C
H     0.668061 0.0283357 0.401802     H
H     0.668061 0.401802 0.0283355     H
H     0.668062 0.401801 0.401802     H
O     0.670399 0.151401 0.952399     O
O       0.6704 0.151399 0.725801     O
O       0.6704 0.725801 0.151399     O
O       0.6704 0.725801 0.952399     O
O       0.6704 0.952399 0.725801     O
O       0.6704   0.9524 0.151399     O
Cr    0.671199    0.874 0.735601    Cr
Cr      0.6712 0.735601    0.874    Cr
Cr    0.671201 0.219199 0.735601    Cr
Cr    0.671201 0.219201    0.874    Cr
Cr    0.671201 0.735601   0.2192    Cr
Cr    0.671201    0.874   0.2192    Cr
C       0.6722   0.3886   0.3886     C
C     0.672201 0.0505993   0.3886     C
C     0.672201 0.388599 0.0506009     C
O     0.672299 0.0653007 0.307901     O
O       0.6723   0.3079 0.0652996     O
O       0.6723 0.454501 0.307901     O
O     0.672301 0.0652991 0.454501     O
O     0.672301   0.3079 0.454501     O
O     0.672301 0.454499 0.0652996     O
C     0.672499   0.8925 0.672501     C
C       0.6725 0.262499 0.672501     C
C       0.6725 0.262499   0.8925     C
C       0.6725 0.672499   0.2625     C
C       0.6725 0.672501   0.8925     C
C       0.6725 0.892499   0.2625     C
O        0.673 0.182201 0.870999     O
O        0.673   0.7738   0.1822     O
O        0.673 0.773801 0.870999     O
O        0.673 0.870999   0.1822     O
O        0.673    0.871 0.773801     O
O     0.673001 0.182199 0.773801     O
F       0.6741 0.143501   0.1435     F
F     0.674101 0.538901   0.1435     F
H     0.675199 0.444822 0.445554     H
H     0.675199 0.934426 0.444822     H
H       0.6752 0.444822 0.934424     H
C       0.6756 0.402601 0.0668011     C
C     0.675601 0.0667992   0.4026     C
C     0.675601 0.066801    0.355     C
C     0.675601 0.354999 0.0668011     C
C     0.675601   0.4026    0.355     C
C     0.675602 0.354999   0.4026     C
O       0.6779 0.376899 0.482501     O
O       0.6779   0.3769 0.962701     O
O       0.6779 0.482499 0.962701     O
O       0.6779 0.482501   0.3769     O
O       0.6779 0.962699 0.482501     O
O     0.677901   0.9627   0.3769     O
O       0.6781 0.0911001   0.5897     O
O       0.6781   0.1411 0.0911002     O
O       0.6781 0.141101   0.5897     O
O       0.6781 0.589699 0.0911002     O
O       0.6781 0.589699   0.1411     O
O     0.678101 0.0910995   0.1411     O
C     0.679099   0.8367   0.1475     C
C       0.6791   0.1475 0.836701     C
C       0.6791 0.836701 0.836701     C
H     0.688607 0.269094 0.771149     H
H     0.688607  0.77115 0.269093     H
H     0.688607  0.77115 0.771149     H
C       0.6894    0.608 0.0646012     C
C     0.689401 0.0645993    0.608     C
C     0.689401 0.0646004    0.138     C
C     0.689401 0.137999 0.0646012     C
C     0.689401    0.138    0.608     C
C     0.689401    0.608    0.138     C
O       0.6897   0.6333 0.113701     O
O       0.6897 0.633301 0.0632993     O
O     0.689701 0.0632994 0.113701     O
O     0.689701 0.0633002 0.633299     O
O     0.689701 0.113699 0.633299     O
O     0.689701   0.1137 0.0632993     O
H      0.69162 0.288238 0.910085     H
H     0.691621 0.288236  0.61006     H
H     0.691621 0.610058 0.288237     H
H     0.691621 0.610058 0.910085     H
H     0.691621 0.910084  0.61006     H
H     0.691621 0.910085 0.288237     H
O     0.692099 0.934699 0.545501     O
O     0.692099 0.934701   0.3277     O
O       0.6921 0.327699   0.9347     O
O       0.6921   0.5455   0.9347     O
O       0.6921 0.545501   0.3277     O
O     0.692101 0.327699 0.545501     O
C     0.692499   0.1523 0.780101     C
C       0.6925   0.7801 0.152299     C
C     0.692501 0.152301   0.8751     C
C     0.692501 0.780101   0.8751     C
C     0.692501 0.875099 0.780101     C
C     0.692501   0.8751 0.152299     C
O     0.692999 -4.48283e-07 0.500001     O
O        0.693 0.307001      0.0     O
O        0.693 0.307001 0.500001     O
O        0.693      0.5      0.0     O
O     0.693001 -5.14706e-07 0.307001     O
O     0.693001 0.499999 0.307001     O
H     0.693368 0.0571527 0.554408     H
H     0.693368 0.554407 0.0571532     H
H     0.693368 0.554408 0.195072     H
H     0.693369 0.195071 0.554408     H
H     0.693369 0.195072 0.0571532     H
H      0.69337 0.0571519 0.195072     H
C       0.6935 0.133299 0.861501     C
C       0.6935   0.8117 0.861501     C
C       0.6935 0.811701 0.133301     C
C       0.6935   0.8615 0.133301     C
C       0.6935   0.8615 0.811701     C
C     0.693501   0.1333 0.811701     C
Cr      0.6961 0.0433008 0.483901    Cr
Cr      0.6961   0.2767 0.483901    Cr
Cr      0.6961 0.483899   0.2767    Cr
Cr    0.696101 0.0432989   0.2767    Cr
Cr    0.696101 0.276701 0.0433003    Cr
Cr    0.696101   0.4839 0.0433003    Cr
O     0.700199 0.231401    0.824     O
O     0.700199    0.824   0.2314     O
O       0.7002   0.2314 0.744401     O
O       0.7002 0.824001 0.744401     O
O     0.700201   0.7444   0.2314     O
O     0.700201 0.744401    0.824     O
C       0.7005 0.435699   0.9281     C
C       0.7005   0.9281 0.435699     C
C     0.700501   0.4357 0.435699     C
C     0.701699 0.0851009 0.379701     C
O     0.701699   0.2489 0.890701     O
O     0.701699   0.6587 0.890701     O
C       0.7017   0.3335 0.379701     C
C       0.7017   0.3797 0.0850991     C
C       0.7017 0.379701   0.3335     C
O       0.7017 0.890699 0.658701     O
O       0.7017 0.890701 0.248899     O
C     0.701701 0.0850999   0.3335     C
O     0.701701   0.2489 0.658701     O
C     0.701701   0.3335 0.0850991     C
O     0.701701   0.6587 0.248899     O
F     0.702701 0.248699 0.466301     F
C     0.704599 0.0352007 0.160401     C
C       0.7046 0.035199 0.599801     C
C       0.7046 0.160401 0.035199     C
C       0.7046   0.5998 0.160401     C
C       0.7046 0.599801 0.035199     C
C     0.704601 0.160399 0.599801     C
O     0.704999   0.8938 0.196201     O
O        0.705   0.1962 0.704999     O
O        0.705   0.1962 0.893799     O
O        0.705 0.704999 0.196201     O
O        0.705 0.893801 0.704999     O
O     0.705001 0.705001 0.893799     O
C     0.705699 0.0346993 0.188501     C
C     0.705699 0.188501 0.0347001     C
C       0.7057 0.188501   0.5711     C
C       0.7057 0.571099 0.188501     C
C     0.705701 0.0347001   0.5711     C
C     0.705701   0.5711 0.0347001     C
C       0.7059 0.478701 0.938299     C
C       0.7059 0.938299   0.4787     C
C     0.705901   0.3771   0.4787     C
C     0.705901   0.3771 0.938299     C
C     0.705901   0.4787 0.377099     C
C     0.705901 0.938302 0.377099     C
O       0.7068 0.140401   0.7578     O
O       0.7068   0.2432     0.52     O
O       0.7068     0.52 0.0300009     O
O       0.7068     0.52   0.2432     O
O       0.7068 0.757799 0.895001     O
O       0.7068    0.895   0.7578     O
O     0.706801 0.0299996   0.2432     O
O     0.706801 0.0299999     0.52     O
O     0.706801 0.140399 0.895001     O
O     0.706801 0.243199 0.0300009     O
O     0.706801   0.7578 0.140399     O
O     0.706801 0.895001 0.140399     O
H     0.711762 0.0899163 0.389942     H
H     0.711763 0.389941 0.0899171     H
H     0.711764 0.0899167 0.308378     H
H     0.711764 0.308378 0.0899171     H
H     0.711764  0.30838 0.389942     H
H     0.711764 0.389943 0.308378     H
C     0.711901   0.3465 0.095101     C
C     0.711901   0.3465   0.3465     C
C     0.711902 0.0950995   0.3465     C
Cr    0.713399 0.150601   0.9226    Cr
Cr    0.713399   0.9226 0.150601    Cr
Cr      0.7134   0.1506   0.7134    Cr
Cr      0.7134   0.7134   0.9226    Cr
Cr      0.7134 0.713401 0.150601    Cr
Cr      0.7134 0.922601   0.7134    Cr
C       0.7139 0.263099 0.761501     C
C       0.7139   0.7615 0.761501     C
C     0.713901   0.7615 0.263099     C
C     0.716899   0.1031   0.8153     C
C       0.7169 0.815299   0.1031     C
C       0.7169 0.864701   0.8153     C
C     0.716901 0.103099 0.864701     C
C     0.716901 0.815299 0.864701     C
C     0.716901   0.8647   0.1031     C
C       0.7176 0.00399922   0.5394     C
C       0.7176    0.239 0.00400075     C
C       0.7176   0.5394 0.00400075     C
C     0.717601 0.00399935    0.239     C
C     0.717601    0.239   0.5394     C
C     0.717601   0.5394    0.239     C
C     0.718099 0.453101   0.9237     C
C       0.7181   0.4051   0.9237     C
C       0.7181 0.453101   0.4051     C
C       0.7181   0.9237 0.453099     C
C     0.718101   0.4051 0.453099     C
C     0.718101   0.9237   0.4051     C
C     0.721399 0.619199 0.00620069     C
C     0.721399 0.619201   0.1532     C
C       0.7214 0.00619989 0.619199     C
C       0.7214 0.00620021   0.1532     C
C       0.7214   0.1532 0.619199     C
C     0.721401 0.153199 0.00620069     C
C     0.722899 0.00489921 0.563901     C
C     0.722899   0.5639 0.00490116     C
C       0.7229   0.2083 0.00490116     C
C       0.7229   0.2083 0.563901     C
C     0.722901 0.00489892   0.2083     C
C     0.722901 0.563899   0.2083     C
Cr    0.723299 0.303901 0.956699    Cr
Cr    0.723299 0.956701   0.3039    Cr
Cr      0.7233 0.303901 0.516099    Cr
Cr      0.7233   0.5161   0.3039    Cr
Cr      0.7233 0.956701 0.516099    Cr
Cr    0.723301 0.516099 0.956699    Cr
O     0.725799 0.151401 0.952399     O
O       0.7258   0.1514 0.670401     O
O       0.7258   0.9524 0.151399     O
O       0.7258   0.9524 0.670401     O
O     0.725801   0.6704 0.151399     O
O     0.725801   0.6704 0.952399     O
O     0.726299   0.5369 0.976701     O
O     0.726299 0.976701 0.260101     O
O       0.7263 0.260099 0.536901     O
O       0.7263 0.260099 0.976701     O
O       0.7263   0.5369 0.260101     O
O       0.7263 0.976699 0.536901     O
O       0.7267 0.491901 0.931699     O
O       0.7267   0.9317   0.4919     O
O     0.726701   0.3497 0.931699     O
O     0.726701 0.349701   0.4919     O
O     0.726701 0.491901   0.3497     O
O     0.726701   0.9317   0.3497     O
H     0.727361 0.0911789 0.884474     H
H     0.727361 0.884476 0.0911786     H
H     0.727362 0.0911788 0.796985     H
H     0.727362 0.796985 0.884474     H
H     0.727362 0.796986 0.0911786     H
H     0.727362 0.884474 0.796985     H
C     0.727599    0.237   0.8078     C
C     0.727599 0.807801 0.236999     C
C     0.727599 0.976201 0.178601     C
C       0.7276   0.1786   0.6176     C
C       0.7276   0.1786 0.976199     C
C       0.7276 0.237001 0.727599     C
C       0.7276 0.617599 0.178601     C
C       0.7276 0.617602 0.976199     C
C       0.7276 0.727601   0.8078     C
C       0.7276 0.976201   0.6176     C
C     0.727601   0.7276 0.236999     C
C     0.727601 0.807801 0.727599     C
C     0.727799 0.842601   0.8426     C
C     0.727801 0.0870009   0.8426     C
C     0.727801 0.842601 0.0869997     C
C     0.728299   0.6463 0.176501     C
C       0.7283   0.1765 0.646299     C
C       0.7283 0.176501   0.9489     C
C       0.7283   0.9489 0.176501     C
C     0.728301   0.6463   0.9489     C
C     0.728301 0.948901 0.646299     C
F       0.7293   0.9375 0.729301     F
H     0.729316 0.00646646 0.634668     H
H     0.729317 0.00646815 0.129549     H
H     0.729317  0.12955 0.634668     H
H     0.729317 0.634667 0.00646677     H
H     0.729317 0.634667 0.129549     H
H     0.729318 0.129549 0.00646677     H
H     0.730906  0.22885 0.311393     H
H     0.730906 0.311393  0.22885     H
H     0.730907  0.22885  0.22885     H
O     0.731899   0.6491 0.920301     O
O     0.731899 0.649101   0.1987     O
O     0.731899 0.920301   0.6491     O
O       0.7319 0.198699   0.6491     O
O       0.7319   0.1987 0.920301     O
O       0.7319   0.9203   0.1987     O
C     0.732599 0.258601   0.7762     C
C       0.7326 0.258599   0.7326     C
C       0.7326 0.732601   0.2586     C
C       0.7326   0.7762   0.2586     C
C       0.7326   0.7762   0.7326     C
C     0.732601   0.7326   0.7762     C
C     0.735499   0.5875   0.9747     C
C     0.735499 0.974701   0.5875     C
C       0.7355 0.202301   0.9747     C
C       0.7355 0.587501 0.202299     C
C     0.735501 0.202299   0.5875     C
C     0.735501 0.974701 0.202299     C
Cr    0.735599 0.219201 0.671199    Cr
Cr      0.7356 0.219201    0.874    Cr
Cr      0.7356   0.6712   0.2192    Cr
Cr      0.7356    0.874   0.2192    Cr
Cr      0.7356 0.874001 0.671199    Cr
Cr    0.735601   0.6712    0.874    Cr
C     0.736899 0.238501 0.238501     C
C       0.7369   0.2861 0.238501     C
C     0.736901 0.238499 0.286101     C
C       0.7375   0.1075 0.327501     C
C       0.7375   0.3275 0.327501     C
C     0.737501 0.327501   0.1075     C
O       0.7399 0.0232996 0.463101     O
O       0.7399 0.0233003   0.2737     O
O       0.7399 0.273699 0.463101     O
O       0.7399 0.463101   0.2737     O
O       0.7399 0.463102 0.0232989     O
O     0.739901   0.2737 0.0232989     O
C       0.7414 0.223799 0.267399     C
C       0.7414 0.267399   0.2238     C
C     0.741401 0.267401 0.267399     C
O     0.744399 0.231401    0.824     O
O     0.744399    0.824   0.2314     O
O     0.744401   0.2314   0.7002     O
O     0.744401 0.700201   0.2314     O
O     0.744401 0.700201    0.824     O
O     0.744401 0.824001   0.7002     O
H     0.750691  0.21543 0.951219     H
H     0.750692 0.582661 0.951219     H
H     0.750692 0.951218  0.21543     H
H     0.750692 0.951219  0.58266     H
H     0.750693  0.21543  0.58266     H
H     0.750693  0.58266  0.21543     H
O       0.7511   0.1093 0.298301     O
O       0.7511 0.298299 0.109301     O
O       0.7511   0.3413 0.109301     O
O     0.751101   0.1093 0.341299     O
O     0.751101   0.2983 0.341299     O
O     0.751101 0.341299 0.298301     O
F     0.751301   0.5337 0.917699     F
F     0.751301 0.917699 0.533701     F
C     0.753601 0.0567998   0.8448     C
C     0.753601   0.8448   0.8448     C
C     0.753601 0.844801 0.0567992     C
C       0.7556   0.3944 0.442199     C
C       0.7556   0.4422 0.394399     C
C     0.755601 0.394401   0.9078     C
C     0.755601   0.9078 0.394399     C
C     0.755601 0.907801 0.442199     C
C     0.755602   0.4422   0.9078     C
O     0.756799     0.48 0.970001     O
O       0.7568 0.480001   0.2932     O
O       0.7568 0.969999     0.48     O
O     0.756801   0.2932     0.48     O
O     0.756801   0.2932 0.970001     O
O     0.756801     0.97   0.2932     O
O       0.7578 0.140399 0.895001     O
O       0.7578 0.706799 0.895001     O
O       0.7578 0.895001 0.140399     O
O     0.757801   0.1404   0.7068     O
O     0.757801   0.7068 0.140399     O
O     0.757801    0.895   0.7068     O
C        0.761 0.282401 0.996001     C
C        0.761   0.4606 0.996001     C
C     0.761001   0.2824 0.460599     C
C     0.761001   0.4606   0.2824     C
C     0.761001    0.996 0.460599     C
C     0.761001 0.996001   0.2824     C
C     0.761499   0.7139 0.761501     C
C       0.7615 0.263099 0.713901     C
C       0.7615 0.263099 0.761501     C
C       0.7615 0.713901 0.263099     C
C       0.7615 0.761499 0.713901     C
C     0.761501   0.7615 0.263099     C
F       0.7621 0.134499 0.235101     F
F     0.762101   0.3683   0.1345     F
C     0.762999 0.192201   0.2724     C
C        0.763   0.2724   0.1922     C
C     0.763001 0.272399   0.2724     C
F       0.7649 0.237901 0.865499     F
F       0.7649   0.8655   0.2379     F
F     0.764901   0.2379   0.6317     F
F     0.764901   0.6317   0.2379     F
O     0.765099 0.0434998 0.822301     O
O     0.765099 0.822299 0.869101     O
O     0.765099 0.869101 0.822301     O
O       0.7651 0.0435006 0.869101     O
O       0.7651   0.8223 0.0434998     O
O     0.765101   0.8691 0.0434998     O
H     0.767714 0.376678 0.458858     H
H     0.767714 0.376678  0.89675     H
H     0.767714 0.458859 0.376679     H
H     0.767714 0.458859  0.89675     H
H     0.767714 0.896749 0.376679     H
H     0.767715 0.896749 0.458858     H
O       0.7686 0.176001 0.255599     O
O       0.7686 0.176001   0.2998     O
O       0.7686 0.255601    0.176     O
O       0.7686   0.2998    0.176     O
O     0.768601 0.255599   0.2998     O
O     0.768601 0.299801 0.255599     O
H     0.770274 0.938692 0.937373     H
H     0.770275 0.853662 0.937373     H
H     0.770276 0.937372 0.853661     H
H      0.77115 0.269093 0.688606     H
H      0.77115 0.688606 0.269093     H
H      0.77115 0.688608 0.771149     H
H      0.77115 0.771152 0.688606     H
H     0.771151 0.269094 0.771149     H
H     0.771151  0.77115 0.269093     H
O     0.773799 0.673001   0.1822     O
O       0.7738 0.182201    0.673     O
O     0.773801 0.182201 0.870999     O
O     0.773801 0.870999   0.1822     O
O     0.773801 0.870999    0.673     O
O     0.773802    0.673 0.870999     O
C     0.776199 0.732601   0.7326     C
C     0.776201 0.258599   0.7326     C
C     0.776201 0.732601   0.2586     C
C       0.7768   0.4081 0.907001     C
C       0.7768 0.408101   0.4081     C
C       0.7768 0.907001   0.4081     C
C     0.780099 0.152301   0.6925     C
C       0.7801 0.152301   0.8751     C
C       0.7801 0.692501 0.152299     C
C       0.7801   0.8751 0.152299     C
C     0.780101 0.875101   0.6925     C
C     0.780102 0.692499   0.8751     C
Cr    0.780799 0.126001   0.3288    Cr
Cr    0.780799   0.2644   0.3288    Cr
Cr    0.780799   0.3288 0.264401    Cr
Cr      0.7808    0.126 0.264401    Cr
Cr      0.7808 0.328799    0.126    Cr
Cr    0.780801 0.264401    0.126    Cr
C     0.782199 0.872601   0.9226     C
C     0.782199 0.922601 0.872601     C
C       0.7822 0.922599   0.9226     C
C     0.783301 0.872899   0.8729     C
C     0.783301 0.872902 0.970899     C
C     0.783301 0.970901   0.8729     C
H     0.784569 0.0487832 0.249308     H
H     0.784569  0.24931 0.0487811     H
H      0.78457 0.0487829 0.417339     H
H      0.78457  0.24931 0.417339     H
H      0.78457 0.417341 0.0487811     H
H      0.78457 0.417341 0.249308     H
O     0.785299   0.8447 0.984101     O
O       0.7853   0.8447   0.8859     O
O       0.7853   0.8859 0.984101     O
O       0.7853 0.885901   0.8447     O
O       0.7853 0.984099   0.8447     O
O       0.7853 0.984101   0.8859     O
F     0.788399 0.00440147 0.918799     F
F       0.7884 0.788399 0.00439987     F
F     0.788401 0.788401 0.918799     F
C     0.790701 0.886101 0.886099     C
C     0.790701 0.886101   0.9371     C
C     0.790701   0.9371 0.886099     C
C       0.7917 0.277099 0.995101     C
C       0.7917   0.2771 0.436101     C
C       0.7917 0.436101 0.995101     C
C       0.7917 0.995099 0.436101     C
C     0.791701   0.4361 0.277099     C
C     0.791701   0.9951 0.277099     C
H     0.796985 0.0911793 0.727362     H
H     0.796985  0.72736 0.884474     H
H     0.796985 0.727362 0.0911786     H
H     0.796985 0.884474 0.727362     H
H     0.796986 0.0911789 0.884474     H
H     0.796986 0.884476 0.0911786     H
C     0.797699 0.0253004 0.264501     C
C       0.7977 0.0253005   0.4125     C
C       0.7977   0.2645 0.0252993     C
C       0.7977 0.264501   0.4125     C
C       0.7977   0.4125 0.264501     C
C       0.7977 0.412501 0.0252993     C
O     0.801299 0.079701   0.2681     O
O       0.8013 0.0797009 0.350899     O
O       0.8013   0.2681 0.079699     O
O       0.8013 0.268101 0.350899     O
O       0.8013   0.3509   0.2681     O
O     0.801301 0.350901 0.079699     O
O     0.803799   0.1062 0.295001     O
O     0.803799 0.295001   0.1062     O
O     0.803801 0.294999 0.295001     O
H     0.804928 0.306631 0.445594     H
H     0.804928 0.306632 0.942849     H
H     0.804928 0.445592 0.306632     H
H     0.804928 0.445593 0.942849     H
H     0.804928 0.942848 0.306632     H
H     0.804928 0.942848 0.445594     H
Cr      0.8069 0.0132997   0.8729    Cr
Cr      0.8069 0.0132998 0.806899    Cr
Cr      0.8069 0.806899   0.8729    Cr
Cr      0.8069   0.8069 0.0132994    Cr
Cr      0.8069   0.8729 0.0132994    Cr
Cr    0.806901   0.8729 0.806899    Cr
C       0.8078   0.7276 0.727599     C
C     0.807801 0.237001 0.727599     C
C     0.807801   0.7276 0.236999     C
C     0.809099 0.400901   0.8891     C
C       0.8091 0.889101 0.400899     C
C     0.809101 0.400901 0.400899     C
C     0.811499 0.965301   0.4289     C
C       0.8115 0.294301   0.4289     C
C     0.811501 0.294301   0.9653     C
C     0.811501 0.428899   0.2943     C
C     0.811501 0.428899   0.9653     C
C     0.811501 0.965301   0.2943     C
C       0.8117 0.133301   0.6935     C
C       0.8117   0.6935 0.861501     C
C       0.8117 0.693501 0.133301     C
C       0.8117   0.8615   0.6935     C
C     0.811701 0.133299 0.861501     C
C     0.811701   0.8615 0.133301     C
C       0.8153 0.103099 0.864701     C
C       0.8153 0.716899   0.1031     C
C       0.8153   0.8647   0.1031     C
C     0.815301   0.1031 0.716899     C
C     0.815301 0.716899 0.864701     C
C     0.815301 0.864701 0.716899     C
O     0.817799 0.226201 0.326999     O
O       0.8178 0.226201    0.129     O
O       0.8178    0.327    0.129     O
O       0.8178    0.327 0.226199     O
O     0.817801    0.129 0.226199     O
O     0.817801    0.129 0.326999     O
O     0.820399   0.3798 0.422801     O
O       0.8204   0.3798    0.877     O
O       0.8204   0.4228   0.3798     O
O       0.8204    0.877 0.422801     O
O       0.8204 0.877001   0.3798     O
O     0.820401 0.422799    0.877     O
C     0.821399 0.023801 0.382399     C
C     0.821399   0.3824 0.0238002     C
C       0.8214 0.0238007   0.2724     C
C     0.821401   0.2724 0.0238002     C
C     0.821401   0.2724 0.382399     C
C     0.821401   0.3824   0.2724     C
O     0.822299 0.0435006 0.869101     O
O     0.822299 0.043501 0.765101     O
O     0.822299   0.7651 0.869101     O
O       0.8223 0.765101 0.0434998     O
O       0.8223 0.869099 0.765101     O
O       0.8223   0.8691 0.0434998     O
C     0.823499 0.271701   0.3537     C
C     0.823499 0.353701 0.0510998     C
C       0.8235 0.0511004   0.3537     C
C       0.8235 0.353701 0.271699     C
C     0.823501 0.0511009 0.271699     C
C     0.823501   0.2717 0.0510998     C
O     0.823999   0.2314 0.744401     O
O     0.823999 0.700201 0.744401     O
O        0.824   0.2314   0.7002     O
O        0.824 0.700201   0.2314     O
O        0.824   0.7444   0.2314     O
O        0.824   0.7444   0.7002     O
O     0.829599 0.0112006   0.8296     O
O       0.8296   0.8296 0.0111992     O
O     0.829601   0.8296   0.8296     O
H     0.831904 0.163156 0.163154     H
H     0.831905 0.163155 0.341786     H
H     0.831905 0.341786 0.163154     H
C     0.836699   0.1475 0.836701     C
C     0.836699   0.6791   0.1475     C
C     0.836699   0.8367   0.1475     C
C       0.8367 0.147499 0.679101     C
C       0.8367 0.679099 0.836701     C
C       0.8367   0.8367 0.679101     C
H     0.836844 0.168095 0.658216     H
H     0.836844 0.168096 0.836846     H
H     0.836844 0.836846 0.168096     H
H     0.836845 0.658214 0.168096     H
H     0.836845 0.658216 0.836846     H
H     0.836846 0.836844 0.658216     H
C       0.8396 0.295399 0.964801     C
C       0.8396 0.295401 0.400201     C
C       0.8396   0.4002 0.964801     C
C       0.8396   0.9648   0.2954     C
C     0.839601   0.4002   0.2954     C
C     0.839601   0.9648 0.400201     C
C     0.842599 0.0870009   0.8426     C
C     0.842599 0.727801 0.0869997     C
C     0.842599 0.727801   0.8426     C
C     0.842599 0.842601 0.0869997     C
C       0.8426 0.0869996 0.727799     C
C       0.8426   0.8426 0.727799     C
O     0.844699 0.785301 0.984101     O
O       0.8447 0.785301   0.8859     O
O       0.8447   0.8859 0.984101     O
O       0.8447 0.885901 0.785299     O
O       0.8447 0.984101 0.785299     O
O       0.8447 0.984101   0.8859     O
C       0.8448 0.0567998   0.8448     C
C       0.8448 0.0568003   0.7536     C
C       0.8448 0.753601 0.0567992     C
C       0.8448 0.753601   0.8448     C
C       0.8448 0.844801 0.0567992     C
C     0.844801   0.8448   0.7536     C
C       0.8468   0.2786 0.993801     C
C       0.8468 0.380799 0.993801     C
C       0.8468 0.380801 0.278601     C
C       0.8468 0.993799 0.380801     C
C       0.8468   0.9938 0.278601     C
C     0.846801   0.2786 0.380801     C
C     0.847699   0.3075 0.219901     C
C       0.8477 0.124899 0.219901     C
C       0.8477 0.124901 0.307499     C
C       0.8477 0.219901   0.1249     C
C       0.8477 0.219901 0.307499     C
C     0.847701   0.3075   0.1249     C
O       0.8486 0.274199 0.329601     O
O       0.8486 0.274201 0.0476004     O
O       0.8486 0.329599 0.274201     O
O     0.848601 0.0475993 0.274201     O
O     0.848601 0.0476004 0.329601     O
O     0.848601   0.3296 0.0476004     O
Cr      0.8494   0.2866   0.2866    Cr
Cr    0.849401 0.0774004   0.2866    Cr
Cr    0.849402   0.2866 0.0773993    Cr
C     0.852499   0.1633 0.320901     C
C       0.8525   0.1633 0.163299     C
C       0.8525   0.3209 0.163299     C
H      0.85366 0.770276 0.937373     H
H      0.85366 0.937373 0.770275     H
H     0.853662 0.938692 0.937373     H
F     0.856499 0.325901 0.461101     F
F     0.856501   0.3259   0.8565     F
F     0.856501   0.8565   0.3259     F
O     0.858899 0.321901   0.4103     O
O     0.858899   0.4103 0.321901     O
O       0.8589   0.9089 0.321901     O
O     0.858901 0.321899 0.908899     O
O     0.858901   0.4103 0.908899     O
O     0.858901 0.908899   0.4103     O
O     0.859599 0.242199 0.105001     O
O       0.8596 0.104999   0.2422     O
O       0.8596    0.105   0.2932     O
O       0.8596 0.242201   0.2932     O
O       0.8596 0.293199 0.105001     O
O     0.859601   0.2932   0.2422     O
C     0.861499 0.811701 0.133301     C
C       0.8615   0.1333 0.811701     C
C       0.8615 0.133301   0.6935     C
C       0.8615   0.6935 0.811701     C
C       0.8615 0.693501 0.133301     C
C     0.861501 0.811699   0.6935     C
C        0.862 0.310599 0.935401     C
C        0.862 0.392001 0.935401     C
C     0.862001 0.310599    0.392     C
C     0.862001    0.392   0.3106     C
C     0.862001   0.9354   0.3106     C
C     0.862001   0.9354    0.392     C
C     0.864699   0.1031   0.8153     C
C       0.8647 0.716901   0.8153     C
C       0.8647 0.815299   0.1031     C
C     0.864701   0.1031 0.716899     C
C     0.864701 0.716899   0.1031     C
C     0.864701 0.815301 0.716899     C
Cr      0.8651   0.3536 0.416199    Cr
Cr      0.8651   0.3536   0.8651    Cr
Cr      0.8651 0.416199 0.353601    Cr
Cr      0.8651   0.4162   0.8651    Cr
Cr      0.8651   0.8651 0.353601    Cr
Cr      0.8651 0.865101 0.416199    Cr
C     0.866699   0.1883 0.138501     C
C       0.8667   0.1385 0.188299     C
C       0.8667   0.1883 0.306499     C
C       0.8667 0.306501 0.138501     C
C       0.8667 0.306501 0.188299     C
C     0.866701 0.138501 0.306499     C
O       0.8691 0.043501 0.765101     O
O     0.869101 0.0434998 0.822301     O
O     0.869101 0.765099 0.822301     O
O     0.869101 0.765101 0.0434998     O
O     0.869101   0.8223 0.0434998     O
O     0.869101   0.8223 0.765101     O
H     0.870451 0.270683 0.365334     H
H     0.870451 0.365335 0.993533     H
H     0.870451 0.993532 0.365334     H
H     0.870451 0.993534 0.270683     H
H     0.870452 0.270682 0.993533     H
H     0.870452 0.365333 0.270683     H
O        0.871 0.182201    0.673     O
O        0.871 0.673001   0.1822     O
O        0.871   0.7738   0.1822     O
O        0.871   0.7738    0.673     O
O     0.871001 0.182199 0.773801     O
O     0.871001 0.672999 0.773801     O
C       0.8726 0.922599 0.782201     C
C     0.872601   0.7822   0.9226     C
C     0.872602 0.922599   0.9226     C
C     0.872899 0.872899 0.783301     C
C     0.872899 0.872902 0.970899     C
C       0.8729   0.7833   0.8729     C
Cr      0.8729   0.8069 0.806899    Cr
C       0.8729   0.9709 0.783301     C
C       0.8729 0.970901   0.8729     C
Cr    0.872901 0.0132998 0.806899    Cr
C     0.872901   0.7833 0.970899     C
Cr    0.872902   0.8069 0.0132994    Cr
Cr    0.873999 0.735601   0.2192    Cr
Cr       0.874 0.219199 0.735601    Cr
Cr       0.874   0.6712 0.735601    Cr
Cr       0.874 0.735601 0.671199    Cr
Cr    0.874001 0.219201 0.671199    Cr
Cr    0.874001   0.6712   0.2192    Cr
C       0.8751 0.152301   0.6925     C
C       0.8751 0.692501 0.780101     C
C       0.8751 0.780101   0.6925     C
C     0.875101   0.1523 0.780101     C
C     0.875101 0.692501 0.152299     C
C     0.875102   0.7801 0.152299     C
O     0.876999   0.3798 0.820401     O
O     0.876999 0.820401 0.422801     O
O        0.877   0.3798 0.422801     O
O        0.877 0.422799 0.820401     O
O        0.877 0.820399   0.3798     O
O     0.877001   0.4228   0.3798     O
O       0.8805   0.3695 0.369499     O
O     0.880501   0.3695   0.8805     O
O     0.880501   0.8805 0.369499     O
H     0.884474 0.796986 0.0911786     H
H     0.884475 0.0911788 0.796985     H
H     0.884475 0.0911793 0.727362     H
H     0.884475 0.727362 0.0911786     H
H     0.884475 0.796985 0.727362     H
H     0.884476  0.72736 0.796985     H
O       0.8859 0.785301 0.984101     O
O       0.8859   0.8447 0.984101     O
O     0.885901   0.7853   0.8447     O
O     0.885901 0.844701 0.785299     O
O     0.885901 0.984099   0.8447     O
O     0.885901 0.984101 0.785299     O
C     0.886099 0.886101   0.9371     C
C       0.8861   0.7907 0.886099     C
C       0.8861 0.790701   0.9371     C
C       0.8861 0.886101 0.790699     C
C       0.8861   0.9371 0.886099     C
C     0.886101 0.937101 0.790699     C
O       0.8863 0.310299 0.366701     O
O       0.8863 0.310301   0.9367     O
O       0.8863   0.3667   0.3103     O
O     0.886301 0.366701   0.9367     O
O     0.886301   0.9367   0.3103     O
O     0.886302 0.936699 0.366701     O
C       0.8891 0.400901 0.400899     C
C     0.889101   0.4009 0.809099     C
C     0.889101 0.809099 0.400899     C
O     0.890699 0.701701 0.658701     O
O       0.8907   0.2489 0.658701     O
O     0.890701   0.2489 0.701699     O
O     0.890701   0.6587 0.248899     O
O     0.890701   0.6587 0.701699     O
O     0.890701 0.701701 0.248899     O
C       0.8925   0.6725 0.672501     C
C     0.892501 0.262499 0.672501     C
C     0.892501 0.672499   0.2625     C
O       0.8938    0.705 0.704999     O
O     0.893801 0.704999 0.196201     O
O     0.893802   0.1962 0.704999     O
O        0.895   0.1404   0.7068     O
O        0.895 0.140401   0.7578     O
O        0.895   0.7068 0.140399     O
O     0.895001   0.7578 0.140399     O
O     0.895001 0.757801   0.7068     O
O     0.895002 0.706799   0.7578     O
F     0.896101   0.2707 0.270699     F
H     0.896748  0.37668 0.767714     H
H     0.896748 0.767714 0.376679     H
H     0.896749 0.458858 0.767714     H
H     0.896749 0.767715 0.458858     H
H      0.89675 0.458859 0.376679     H
H     0.896751 0.376678 0.458858     H
C     0.896899 0.184701 0.283101     C
C       0.8969   0.1353   0.1847     C
C       0.8969 0.135301 0.283101     C
C       0.8969 0.184699 0.135301     C
C       0.8969 0.283099 0.135301     C
C       0.8969   0.2831   0.1847     C
C       0.9049   0.2881   0.6535     C
C       0.9049 0.653499 0.288099     C
C       0.9049 0.653501   0.6535     C
Cr    0.906899   0.3431   0.3431    Cr
Cr    0.906901 0.343101 0.906899    Cr
Cr    0.906901   0.9069   0.3431    Cr
C        0.907   0.4081 0.776801     C
C        0.907 0.408101   0.4081     C
C        0.907 0.776799   0.4081     C
C       0.9078 0.394401   0.7556     C
C     0.907801   0.3944 0.442199     C
C     0.907801   0.4422 0.394399     C
C     0.907801   0.4422   0.7556     C
C     0.907801   0.7556 0.442199     C
C     0.907801 0.755601 0.394399     C
H      0.90882 0.203015 0.115525     H
H      0.90882 0.203016  0.27264     H
H     0.908821 0.115525 0.203014     H
H     0.908821 0.272639 0.203014     H
H     0.908822 0.115524  0.27264     H
H     0.908822 0.272639 0.115525     H
O       0.9089 0.321901   0.8589     O
O       0.9089 0.858899 0.321901     O
O       0.9089 0.858901   0.4103     O
O     0.908901 0.321901   0.4103     O
O     0.908901   0.4103 0.321901     O
O     0.908901   0.4103   0.8589     O
H     0.910084 0.288236 0.691621     H
H     0.910084 0.610059 0.691621     H
H     0.910084 0.691621 0.288237     H
H     0.910084 0.691621  0.61006     H
H     0.910085 0.288236  0.61006     H
H     0.910085 0.610058 0.288237     H
C        0.913   0.1574   0.1574     C
C     0.913001 0.157399 0.272201     C
C     0.913001   0.2722   0.1574     C
C       0.9149 0.298301   0.6665     C
C       0.9149   0.6203 0.298301     C
C     0.914901   0.2983 0.620299     C
C     0.914901   0.6203   0.6665     C
C     0.914901 0.666499 0.298301     C
C     0.914901 0.666501 0.620299     C
F       0.9177 0.533701   0.7513     F
O     0.920299 0.649101   0.7319     O
O     0.920299 0.731901   0.6491     O
O       0.9203   0.7319   0.1987     O
O     0.920301 0.198699   0.7319     O
O     0.920301 0.649101   0.1987     O
O     0.920302 0.198699   0.6491     O
Cr      0.9226   0.1506   0.7134    Cr
Cr      0.9226 0.713401 0.150601    Cr
C       0.9226   0.7822   0.9226     C
C       0.9226 0.872601 0.782201     C
C       0.9226 0.922599 0.782201     C
C       0.9226 0.922601 0.872601     C
C     0.922601 0.782199 0.872601     C
C     0.922601 0.872601   0.9226     C
Cr    0.922602 0.713399   0.7134    Cr
C       0.9237   0.4531 0.718101     C
C       0.9237 0.453101   0.4051     C
C     0.923701   0.4051 0.453099     C
C     0.923701   0.4051 0.718101     C
C     0.923701   0.7181   0.4051     C
C     0.923701   0.7181 0.453099     C
C     0.928101   0.4357 0.435699     C
C     0.928101   0.4357 0.700499     C
C     0.928101   0.7005 0.435699     C
O     0.931699 0.349701   0.4919     O
O     0.931699 0.491901   0.3497     O
O       0.9317   0.7267   0.4919     O
O     0.931701   0.4919 0.726699     O
O     0.931701   0.7267   0.3497     O
O     0.931702   0.3497 0.726699     O
C     0.933199 0.324401    0.645     C
C     0.933199 0.645001   0.3244     C
C       0.9332 0.324401 0.597399     C
C       0.9332 0.597401    0.645     C
C       0.9332    0.645 0.597399     C
C     0.933201 0.597399   0.3244     C
H     0.934426 0.444822 0.445554     H
H     0.934426 0.445553   0.6752     H
H     0.934426 0.675199 0.445554     H
O     0.934699 0.545501   0.3277     O
O       0.9347 0.327699 0.545501     O
O       0.9347 0.327699 0.692101     O
O       0.9347   0.5455 0.692101     O
O       0.9347 0.692099 0.545501     O
O       0.9347 0.692101   0.3277     O
F     0.934801   0.9348 0.315199     F
C       0.9354 0.391999    0.862     C
C       0.9354    0.392   0.3106     C
C       0.9354 0.861999    0.392     C
C     0.935401 0.310599    0.392     C
C     0.935401   0.3106    0.862     C
C     0.935401 0.862001   0.3106     C
O       0.9367 0.310299 0.886301     O
O       0.9367 0.886301   0.3103     O
O     0.936701 0.310299 0.366701     O
O     0.936701 0.366699 0.886301     O
O     0.936701   0.3667   0.3103     O
O     0.936701   0.8863 0.366701     O
C       0.9371 0.886101 0.886099     C
C     0.937101   0.7907 0.886099     C
C     0.937101 0.886101 0.790699     C
H     0.937372 0.853662 0.770275     H
H     0.937373 0.770275 0.853661     H
F     0.937499 0.103901 0.729301     F
F       0.9375 0.729299 0.103901     F
F     0.937501   0.7293 0.729301     F
C       0.9383 0.377101 0.705899     C
C     0.938301   0.3771   0.4787     C
C     0.938301   0.4787 0.377099     C
C     0.938301 0.705899 0.377099     C
C     0.938301 0.705899   0.4787     C
C     0.938302 0.478699 0.705899     C
H     0.938691 0.853662 0.937373     H
H     0.938692 0.770276 0.937373     H
H     0.938692 0.937372 0.853661     H
H     0.938693 0.937373 0.770275     H
C        0.942 0.337201    0.559     C
C        0.942    0.559 0.661801     C
C        0.942   0.6618    0.559     C
C     0.942001 0.337199 0.661801     C
C     0.942001 0.558999 0.337201     C
C     0.942001   0.6618 0.337201     C
H     0.942847 0.804928 0.306632     H
H     0.942848 0.306631 0.445594     H
H     0.942848 0.306632 0.804928     H
H     0.942848 0.445594 0.804928     H
H     0.942848 0.804928 0.445594     H
H     0.942849 0.445592 0.306632     H
C     0.943199 0.155201   0.2464     C
C       0.9432 0.155199   0.1552     C
C       0.9432   0.2464   0.1552     C
C     0.948899   0.6463 0.176501     C
C       0.9489   0.1765 0.646299     C
C     0.948901 0.176499   0.7283     C
C     0.948901 0.646301   0.7283     C
C     0.948901   0.7283 0.176501     C
C     0.948901 0.728301 0.646299     C
C     0.949399 0.611401   0.6114     C
C     0.949401 0.611401   0.3278     C
C     0.949402   0.3278   0.6114     C
H     0.951217 0.582661 0.750692     H
H     0.951217 0.750692  0.58266     H
H     0.951218  0.21543  0.58266     H
H     0.951218  0.21543 0.750692     H
H     0.951218  0.58266  0.21543     H
H     0.951219 0.750691  0.21543     H
O       0.9524   0.1514 0.670401     O
O       0.9524 0.725801 0.151399     O
O     0.952401 0.151399 0.725801     O
O     0.952401 0.670399 0.725801     O
O     0.952401   0.6704 0.151399     O
O     0.952401 0.725799 0.670401     O
O       0.9565   0.1309 0.177701     O
O       0.9565 0.177699 0.130901     O
O       0.9565   0.2349 0.177701     O
O     0.956501   0.1309 0.234899     O
O     0.956501   0.1777 0.234899     O
O     0.956501 0.234899 0.130901     O
Cr    0.956701 0.303901 0.516099    Cr
Cr    0.956701 0.303901 0.723299    Cr
Cr    0.956701   0.5161   0.3039    Cr
Cr    0.956701 0.723299   0.3039    Cr
Cr    0.956701 0.723302 0.516099    Cr
Cr    0.956702   0.5161 0.723299    Cr
O       0.9627 0.376899 0.677901     O
O       0.9627   0.6779   0.3769     O
O     0.962701 0.376899 0.482501     O
O     0.962701   0.4825 0.677901     O
O     0.962701 0.482501   0.3769     O
O     0.962701 0.677899 0.482501     O
O        0.963   0.3538   0.6436     O
O        0.963 0.353801   0.5396     O
O        0.963   0.5396   0.6436     O
O        0.963 0.539601   0.3538     O
O        0.963   0.6436   0.3538     O
O        0.963   0.6436   0.5396     O
C     0.964799   0.8396 0.400201     C
C       0.9648 0.295401 0.400201     C
C       0.9648   0.4002   0.2954     C
C       0.9648 0.400201 0.839599     C
C       0.9648   0.8396   0.2954     C
C     0.964801   0.2954 0.839599     C
C       0.9653 0.294299 0.811501     C
C       0.9653 0.294301   0.4289     C
C       0.9653   0.8115   0.2943     C
C     0.965301 0.428899   0.2943     C
C     0.965301 0.428899 0.811501     C
C     0.965301 0.811501   0.4289     C
O         0.97   0.2932   0.7568     O
O         0.97 0.480001   0.2932     O
O         0.97 0.480001   0.7568     O
O         0.97   0.7568   0.2932     O
O     0.970001   0.2932     0.48     O
O     0.970001 0.756799     0.48     O
C     0.970901   0.7833   0.8729     C
C     0.970901 0.872899 0.783301     C
C     0.970901 0.872899   0.8729     C
H     0.971664 0.331938   0.5982     H
H     0.971664 0.598199 0.331939     H
H     0.971665 0.598198   0.5982     H
C       0.9747 0.202299 0.735501     C
C       0.9747   0.5875 0.735501     C
C       0.9747   0.7355 0.202299     C
C     0.974701 0.202299   0.5875     C
C     0.974701 0.587501 0.202299     C
C     0.974701 0.735501   0.5875     C
C     0.976199   0.7276 0.178601     C
C       0.9762 0.178601 0.727599     C
C       0.9762   0.6176 0.727599     C
C       0.9762 0.727599   0.6176     C
C     0.976201   0.1786   0.6176     C
C     0.976201 0.617599 0.178601     C
O     0.976701 0.260099 0.536901     O
O     0.976701   0.5369 0.260101     O
O     0.976701   0.5369   0.7263     O
O     0.976701 0.726299 0.260101     O
O     0.976701 0.726299 0.536901     O
O     0.976702 0.260099   0.7263     O
O       0.9841 0.785301   0.8859     O
O       0.9841 0.844701 0.785299     O
O       0.9841 0.885901   0.8447     O
O     0.984101   0.7853   0.8447     O
O     0.984101   0.8447   0.8859     O
O     0.984101 0.885901 0.785299     O
Cr    0.986701   0.1271   0.1931    Cr
Cr    0.986701   0.1931   0.1271    Cr
Cr    0.986701   0.1931   0.1931    Cr
O     0.988801 0.170399   0.1704     O
H     0.993531 0.870451 0.365334     H
H     0.993532 0.270683 0.365334     H
H     0.993532 0.270684  0.87045     H
H     0.993532 0.365335  0.87045     H
H     0.993533 0.365333 0.270683     H
H     0.993533 0.870451 0.270683     H
C     0.993799 0.380801 0.278601     C
C       0.9938   0.2786 0.380801     C
C       0.9938 0.846801 0.380801     C
C     0.993801 0.278599   0.8468     C
C     0.993801   0.3808   0.8468     C
C     0.993801 0.846799 0.278601     C
C       0.9951   0.2771 0.436101     C
C     0.995101 0.277101 0.791699     C
C     0.995101   0.4361 0.277099     C
C     0.995101 0.791701 0.436101     C
C     0.995102   0.4361 0.791699     C
C     0.995102 0.791699 0.277099     C
F       0.9956   0.2116 0.0812005     F
C     0.995999 0.460601    0.761     C
C        0.996 0.282399    0.761     C
C        0.996   0.4606   0.2824     C
C        0.996 0.760999 0.460599     C
C        0.996    0.761   0.2824     C
C     0.996001   0.2824 0.460599     C
