data_I
_chemical_name_common  '/home/zhangsd/repos/MofS-CGCNN/ML/data/WS24/clean_cifs/mil-101-nh2'
_cell_length_a 62.83990
_cell_length_b 62.83990
_cell_length_c 62.83990
_cell_angle_alpha 60.00000
_cell_angle_beta  60.00000
_cell_angle_gamma 60.00000
_space_group_name_H-M_alt      'P 1'


loop_
_space_group_symop_operation_xyz
  'x, y, z' 

loop_
_atom_site_label
_atom_site_fract_x
_atom_site_fract_y
_atom_site_fract_z
_atom_site_type_symbol
Cr    -8.357010000265008e-07 0.715899 0.284101    Cr
O     -5.189919999593062e-07  0.68377  0.31623     O
Cr    -3.8309200003916466e-07 0.284099   0.7159    Cr
O     -2.5441300002815304e-07  0.31623      0.5     O
Cr    -2.4319300001574007e-07   0.7159      0.5    Cr
O     -1.640080000420152e-07      0.5  0.31623     O
F     -9.816629997771997e-08 0.250459      0.5     F
O     -5.0136899992780926e-08  0.31623 0.6837689999999998     O
Cr    -1.688899994856108e-08 0.49999899999999997   0.7159    Cr
F     1.560979999426504e-08      0.5 0.250459     F
O     2.6746100009744644e-07 0.500001 0.6837689999999998     O
Cr    3.8944199996782114e-07 0.499999 0.284101    Cr
Cr    6.157460000488779e-07 0.28409900000000005      0.5    Cr
O     6.269660000612909e-07 0.6837690000000001      0.5     O
C     0.0034797199999999917 0.46564000000000005 0.3739199999999999     C
C     0.003479839999999984 0.4656389999999999 0.656961     C
C     0.003480229999999973 0.37391899999999995  0.46564     C
C     0.003480230000000084 0.6569589999999998  0.46564     C
C     0.0034804199999999563 0.6569600000000001 0.3739199999999999     C
C     0.003480540000000004 0.373919 0.656961     C
C     0.003519340000000065 0.44166099999999997 0.658699     C
C     0.003519720000000004 0.6586999999999998 0.441659     C
C     0.003520030000000063 0.396121 0.441659     C
C     0.0035202699999999643 0.44166000000000005 0.396119     C
C     0.003520700000000071   0.6587 0.396119     C
C     0.003521009999999908 0.396119 0.658699     C
C     0.007439370000000001 0.8515799999999999 0.301981     C
C     0.007439600000000046 0.3019810000000001 0.851579     C
C     0.007440060000000026 0.338999 0.301981     C
C     0.007440260000000046  0.30198    0.339     C
C     0.007440679999999991 0.851579    0.339     C
C     0.007440720000000067 0.33900000000000013 0.851579     C
Cr    0.010429299999999975 0.7941099999999999  0.84773    Cr
Cr    0.010430199999999945 0.8477289999999998 0.794109    Cr
Cr    0.010430799999999962 0.847729  0.84773    Cr
O     0.012530700000000117 0.8291559999999999 0.8291559999999999     O
F     0.01611009999999996 0.8618490000000001 0.760189     F
H     0.01669392321309493 0.4424364787464216 0.7677839998697648     H
H     0.01669433698097586 0.7677849318253678 0.44243970650208786     H
H     0.01669439812211669 0.7677829857807633 0.27308199813073564     H
H     0.01669507782416066 0.4424373877767781 0.2730814553529949     H
H     0.016695154484463237 0.2730805067574026 0.7677833203178018     H
H     0.016696939925232912 0.2730757984848716 0.44244139547717387     H
O     0.016939200000000015  0.52218  0.63184     O
O     0.01693950000000008 0.631839  0.52218     O
O     0.016939900000000035 0.3290400000000001  0.52218     O
O     0.016939900000000035 0.6318389999999999 0.329041     O
O     0.01694000000000004 0.5221789999999998 0.329041     O
O     0.01694029999999999 0.3290390000000001  0.63184     O
H     0.018507700000000002 0.8459269999999999 0.350608     H
H     0.018508499999999983 0.35060899999999995 0.845925     H
H     0.018509200000000017 0.284956 0.350608     H
O     0.018509399999999995 0.12077099999999998 0.198869     O
O     0.018509600000000022  0.19887 0.120769     O
O     0.01851040000000003  0.19887  0.16185     O
O     0.018510599999999974  0.16185 0.198869     O
O     0.018510600000000023 0.12076900000000002  0.16185     O
O     0.018510999999999993  0.16185 0.120769     O
C     0.02038989999999999  0.68671  0.14359     C
C     0.020390300000000056  0.64931 0.6867099999999999     C
C     0.020390399999999864 0.3127510000000001 0.854109     C
C     0.020390599999999814 0.6867100000000002 0.6493090000000001     C
C     0.02039059999999987 0.14359100000000002 0.6493090000000001     C
C     0.020390599999999898 0.6493090000000001  0.14359     C
C     0.02039060000000001 0.143589 0.6867099999999999     C
C     0.020390899999999976  0.31275 0.31274899999999994     C
C     0.020391099999999954 0.854109 0.31274899999999994     C
C     0.021239600000000025 0.3350800000000001   0.5603     C
C     0.021239700000000028   0.5603 0.335081     C
C     0.021239900000000034  0.33508  0.58338     C
C     0.021240200000000042  0.58338   0.5603     C
C     0.021240499999999884 0.583379 0.335081     C
C     0.0212406 0.5602990000000001  0.58338     C
H     0.02167424636583043 0.2191504913440487 0.5446980083083017     H
H     0.02167493034924106 0.5446954495530439 0.21915081786349208     H
H     0.021675317949616038 0.714476126156117 0.21915009255961174     H
H     0.021675860997372842 0.21914996696785455 0.714478206540151     H
H     0.02167588256631925 0.7144782643875176 0.5446969209087655     H
H     0.02167670589383111 0.5446982854778931 0.7144788315574893     H
N     0.02223753810329171 0.2800209982982044 0.8442589994327346     N
C     0.02296989999999998 0.10930900000000002  0.18386     C
C     0.022970399999999995 0.18385899999999997 0.109309     C
C     0.022970500000000012  0.18386  0.18386     C
O     0.02470960000000008 0.4691299999999998 0.650809     O
O     0.024710000000000037 0.650809 0.46912999999999994     O
O     0.024710499999999996 0.35534999999999994 0.650809     O
O     0.024710500000000052 0.3553489999999999 0.46912999999999994     O
O     0.024710600000000055 0.4691289999999999  0.35535     O
O     0.0247109999999999 0.650809  0.35535     O
H     0.024928031920038174 0.26197653875413685 0.8581094905750504     H
C     0.025539299999999987   0.3958   0.4184     C
C     0.02553990000000006 0.418399 0.39579899999999996     C
C     0.025540300000000016 0.6602599999999998   0.4184     C
C     0.02554059999999997 0.6602600000000001 0.39579899999999996     C
C     0.025540599999999997 0.395799  0.66026     C
C     0.025540800000000113 0.41839899999999997  0.66026     C
O     0.02783909999999999   0.4654 0.281661     O
O     0.02783930000000001 0.2816600000000001   0.4654     O
O     0.02783989999999996 0.725099 0.281661     O
O     0.027840099999999923 0.7250990000000002   0.4654     O
O     0.027840499999999935 0.46539900000000006 0.725099     O
O     0.02784049999999999 0.28165899999999994 0.725099     O
O     0.030279000000000056  0.51478  0.25424     O
O     0.03027909999999992  0.25424   0.7007     O
O     0.030279500000000015 0.700699  0.25424     O
O     0.030279699999999993 0.254239  0.51478     O
O     0.03028019999999987 0.7007000000000001  0.51478     O
O     0.03028019999999995 0.514779   0.7007     O
H     0.030484650710717598 0.28183415223659647 0.8249980730885271     H
H     0.030638399999999982  0.14111 0.630632     H
H     0.03063860000000001  0.63063 0.141111     H
H     0.030639099999999975 0.6976179999999998 0.630632     H
C     0.03424089999999999 0.661839 0.661839     C
C     0.03424100000000002 0.6618389999999998  0.14208     C
C     0.0342411 0.14208000000000007 0.661839     C
N     0.03428018465768581 0.7001841663144596 0.14029125859715322     N
N     0.03428134188184015 0.6252455885824163 0.700184997243119     N
Cr    0.035629200000000166  0.49019 0.6538299999999999    Cr
Cr    0.035630200000000056 0.6538289999999999 0.490189    Cr
Cr    0.03563029999999999 0.490189  0.32035    Cr
Cr    0.03563039999999999  0.65383  0.32035    Cr
Cr    0.03563059999999996 0.320349 0.490189    Cr
Cr    0.03563060000000004 0.320349 0.6538299999999999    Cr
N     0.035901472798399836 0.440539269499426 0.7606428496168715     N
N     0.03590211862952229 0.7606413797733641 0.2629135331071629     N
N     0.03590232286814146 0.7606432249923106 0.44054115126428556     N
N     0.03590281345219552 0.4405396932583801 0.26291304392397213     N
N     0.03590301799030049 0.26291270747059886 0.760641239906974     N
N     0.03590527243219152 0.26290932103340847 0.44054181731905145     N
H     0.036284419719270766 0.1390567776850989 0.23542391116326422     H
H     0.03628583687602106 0.08923472119468594 0.13905542325528014     H
H     0.03628829419292112 0.13905219759896992 0.08923370496413359     H
H     0.03653346203824377 0.6986993610417499 0.15602162209743276     H
H     0.036535807429576767 0.6087455737260783 0.6987014696946917     H
O     0.037808999999999926  0.78447  0.86079     O
O     0.03780919999999993 0.8169299999999999  0.86079     O
O     0.037809600000000054 0.860789 0.7844689999999999     O
O     0.03780989999999995 0.860789  0.81693     O
O     0.03781080000000009 0.816929 0.7844689999999999     O
O     0.03781089999999998 0.7844690000000001  0.81693     O
H     0.03902829999999992 0.585493 0.330611     H
H     0.03902859999999997 0.544867 0.585493     H
H     0.039028600000000024 0.330611 0.585493     H
N     0.04038316831428454 0.21663228480627508 0.5321583812292909     N
N     0.04038412207628678 0.5321564596989126 0.2166322858588232     N
N     0.04038422229286297 0.710824673182395 0.21663226432489208     N
N     0.040384948734515314 0.2166322615527272 0.7108259702660683     N
N     0.040384954450904675 0.710826209260276 0.532157720777647     N
N     0.04038552715586963 0.5321585739022838 0.7108266054403058     N
O     0.040869599999999895  0.66161  0.51355     O
O     0.04086969999999994  0.51355  0.28397     O
O     0.040869699999999995 0.661609  0.28397     O
O     0.0408697999999999  0.51355 0.661609     O
O     0.040869799999999956 0.283971  0.51355     O
O     0.04087000000000002  0.28397 0.661609     O
H     0.041399537060782754 0.45224965075200624 0.7623223708199265     H
H     0.04140083116744424 0.7623193588158433 0.24402594038018866     H
H     0.041401685110114245 0.4522499024526978 0.24402514322136357     H
H     0.04140211696219395 0.762321727936179 0.4522508382653035     H
H     0.04140239044549027 0.2440251702272811 0.762318641166518     H
H     0.04140648456294399 0.24402134173707363 0.4522509737010973     H
H     0.042192199999999985 0.41789299999999996 0.378475     H
H     0.042192200000000096 0.6614389999999999 0.378475     H
H     0.042192399999999936 0.41789199999999993 0.6614390000000001     H
H     0.042293639415417715 0.711628137993509 0.1221226949295521     H
H     0.04229416815981096 0.6239588645648886 0.711628305362547     H
N     0.04437775357779575 0.32926726235176784 0.5405628586606631     N
N     0.04437901186698673 0.5857918308615971 0.5405642898888305     N
C     0.04526019999999999 0.183199  0.08834     C
C     0.04526040000000001 0.18320000000000003 0.18319899999999997     C
C     0.04526059999999998 0.08833920000000003 0.18319899999999997     C
H     0.04558357119068793 0.2139457670383568 0.5152566881023645     H
H     0.04558479528735669 0.725212196039138 0.21394610972161418     H
H     0.045585277946674774 0.5152547226657168 0.21394544340198013     H
H     0.045586242058038434 0.21394622772005037 0.725212929406036     H
H     0.04558631006007191 0.725213526194977 0.5152559664387022     H
H     0.04558683370702887 0.515256938689232 0.7252140442137832     H
C     0.04569880000000004   0.4524  0.70924     C
C     0.045699000000000045  0.70924   0.4524     C
C     0.045699100000000006 0.45239999999999997 0.292661     C
C     0.04569919999999994 0.29266000000000003  0.70924     C
C     0.045699600000000035 0.2926599999999999   0.4524     C
C     0.04569979999999997 0.7092390000000001 0.292661     C
C     0.04576960000000001 0.6773500000000001  0.26081     C
C     0.04576969999999994 0.260811 0.677349     C
C     0.04576970000000001  0.51607  0.26081     C
C     0.04576990000000003 0.26080999999999993  0.51607     C
C     0.045770400000000044 0.6773499999999999  0.51607     C
C     0.04577129999999999 0.5160689999999999 0.677349     C
C     0.04789969999999995 0.30529900000000004   0.3053     C
C     0.04789979999999994 0.30530100000000004 0.841499     C
C     0.04790019999999999 0.8414990000000001   0.3053     C
C     0.047919199999999995 0.7937399999999999   0.8646     C
C     0.047920099999999966 0.8646000000000003 0.793739     C
C     0.047920600000000035 0.7937390000000002 0.793739     C
N     0.049324872595425714 0.13947994466384728 0.21715800381510475     N
N     0.049326136921887725 0.09403656542654308 0.13947939334210527     N
N     0.04932798649862296 0.13947656844844564 0.09403604925951645     N
H     0.050555399999999986 0.09164379999999998 0.213109     H
H     0.05055559999999998 0.213108 0.09164359999999999     H
H     0.050555699999999974 0.213108 0.144693     H
O     0.05077950000000006 0.46250000000000013 0.683059     O
O     0.05077990000000002 0.46250099999999994 0.303659     O
O     0.05077999999999991 0.30366000000000004 0.683059     O
O     0.05078000000000002 0.683059   0.4625     O
O     0.05078029999999997 0.303659   0.4625     O
O     0.050780899999999934 0.683059 0.303659     O
H     0.051434967865166936 0.34378753114892774 0.5256813521388696     H
H     0.051437819074498264 0.5790957164988914 0.5256824785396735     H
H     0.05442265280444794 0.3104506222493928 0.5408560433229467     H
H     0.05442280473507466 0.5942706028176572 0.5408588372427752     H
C     0.054448700000000044  0.74871  0.42213     C
C     0.05444959999999993 0.422129 0.748709     C
C     0.054449599999999945 0.748709  0.27471     C
C     0.05444979999999994  0.27471 0.748709     C
C     0.05445009999999996 0.422129  0.27471     C
C     0.05445020000000003 0.274709  0.42213     C
H     0.05486339450381411 0.8887924550477964 0.8245646861174946     H
H     0.054863755591862906 0.824563308014129 0.888795150726039     H
H     0.05486519356519404 0.7317752550992679 0.824564110783422     H
H     0.05585748347689522 0.1244027663941349 0.21093179493897923     H
H     0.055859159910019274 0.10880725801714944 0.12440261068179084     H
H     0.05586139925982873 0.12439957684677255 0.10880641692062885     H
O     0.05645899999999998 0.28744100000000006 0.830779     O
O     0.056459199999999946  0.83078 0.287439     O
O     0.05645919999999999 0.28744100000000006  0.32532     O
O     0.05645950000000001 0.32532099999999997 0.287439     O
O     0.056459700000000085 0.830779  0.32532     O
O     0.05645980000000006 0.32531999999999994 0.830779     O
C     0.058129599999999976 0.200869 0.160451     C
C     0.058129600000000003 0.16045099999999998 0.200869     C
C     0.05813009999999999 0.08054929999999999 0.160451     C
C     0.05813059999999996 0.20086900000000002 0.0805499     C
C     0.05813059999999999 0.160449 0.0805499     C
C     0.058131000000000044 0.0805494 0.200869     C
C     0.05865939999999997 0.21686000000000008  0.53806     C
C     0.05865969999999997 0.5380589999999998  0.21686     C
C     0.058660099999999965  0.68642  0.53806     C
C     0.058660199999999926 0.686419  0.21686     C
C     0.05866019999999994  0.21686  0.68642     C
C     0.05866040000000006  0.53806  0.68642     C
H     0.06091009999999987 0.784211 0.263414     H
H     0.060910899999999935 0.26341300000000006  0.78421     H
H     0.06091099999999998 0.39146499999999995 0.263414     H
H     0.060911200000000054 0.391465  0.78421     H
H     0.060911299999999974 0.263413 0.391465     H
H     0.06091170000000001 0.7842089999999999 0.391465     H
C     0.062009299999999934 0.24017000000000005  0.66791     C
C     0.06200929999999999  0.52991  0.66791     C
C     0.06200969999999986  0.66791  0.52991     C
C     0.06200989999999999 0.6679090000000001  0.24017     C
C     0.0620106 0.24017000000000002  0.52991     C
C     0.06201080000000002 0.529909  0.24017     C
C     0.062079599999999985 0.428141  0.72142     C
C     0.0620797  0.72142 0.288359     C
C     0.06207970000000004 0.28836000000000006  0.72142     C
C     0.06208050000000001 0.7214190000000001 0.42813899999999994     C
C     0.06208059999999996 0.28836000000000006 0.42813899999999994     C
C     0.06208059999999997  0.42814 0.288359     C
C     0.06290939999999998 0.12986899999999998  0.65361     C
C     0.06290989999999996 0.6536090000000001 0.129869     C
C     0.06290990000000005 0.6536090000000001  0.65361     C
C     0.06605919999999998  0.76362 0.397019     C
C     0.06605959999999994 0.39702000000000004 0.763619     C
C     0.0660599   0.2733 0.397019     C
C     0.06606029999999996 0.39701900000000007 0.273299     C
C     0.06606109999999993 0.27329900000000007 0.763619     C
C     0.06606120000000004 0.7636189999999999 0.273299     C
F     0.06696000000000002  0.48356  0.62144     F
F     0.0669601999999999  0.62144 0.328041     F
C     0.06750990000000001 0.876791 0.777849     C
C     0.06751059999999998 0.7778490000000001 0.777849     C
C     0.06751060000000009 0.7778490000000001 0.876789     C
H     0.06762999999999995 0.626369 0.262173     H
H     0.06763019999999989 0.26217200000000007 0.626369     H
H     0.06763039999999984 0.626369 0.543827     H
H     0.06763070000000002 0.543827 0.626369     H
H     0.06763079999999999 0.262173 0.543827     H
H     0.06763089999999998 0.543827 0.262173     H
N     0.06906774066856824 0.8744460641107202 0.8169108995519632     N
N     0.06906814414903995 0.8169105862674888 0.8744480291275739     N
N     0.069069463946339 0.7395710643572528 0.8169107205432828     N
H     0.07152419999999993 0.8757290000000001 0.741849     H
H     0.07152449999999977 0.7418480000000001 0.875729     H
H     0.07152520000000007 0.810896 0.741849     H
C     0.07264909999999991 0.543671  0.64041     C
C     0.07264989999999993  0.24327 0.543669     C
C     0.07264990000000004 0.640409 0.543669     C
C     0.07264999999999998 0.5436699999999999 0.243269     C
C     0.07265029999999995  0.24327  0.64041     C
C     0.07265039999999988  0.64041 0.243269     C
C     0.07456940000000004  0.67921  0.55243     C
C     0.0745698000000001 0.552429  0.67921     C
C     0.07457020000000004  0.55243  0.19379     C
C     0.0745703  0.19379  0.67921     C
C     0.07457040000000001 0.19378999999999993  0.55243     C
C     0.07457069999999995 0.6792090000000001  0.19379     C
H     0.07584252558835092 0.8561135901250458 0.8289415604813608     H
H     0.07584326968594263 0.8289420804576877 0.856116276884272     H
H     0.07584485550521286 0.7390967907488597 0.82894164548731     H
H     0.07587689999999997 0.555188 0.693933     H
H     0.07587739999999998 0.17500099999999996 0.693933     H
H     0.07587740000000007 0.693932 0.555188     H
H     0.07587779999999993 0.6939309999999999 0.175002     H
H     0.0758785 0.555187 0.175002     H
H     0.07587859999999999 0.17500100000000005 0.555188     H
O     0.07594909999999994  0.66517  0.63161     O
O     0.07594940000000003 0.6316100000000001 0.6651699999999999     O
O     0.07594959999999999 0.6316100000000001 0.127269     O
O     0.0759496 0.12726900000000002  0.63161     O
O     0.07595000000000006  0.66517 0.127269     O
O     0.07595030000000005 0.127269 0.6651699999999999     O
F     0.0779897 0.23370999999999992  0.84375     F
F     0.07798970000000004 0.23370999999999997 0.34455099999999994     F
F     0.07799019999999998 0.8437490000000001  0.23371     F
C     0.07880999999999982  0.30271  0.70963     C
C     0.07881009999999997 0.7096300000000001 0.40884999999999994     C
C     0.0788102  0.40885  0.70963     C
C     0.07881030000000006 0.7096299999999999  0.30271     C
C     0.07881050000000003 0.302709 0.40884999999999994     C
C     0.07881079999999996 0.408849  0.30271     C
C     0.07911950000000001 0.7902790000000001 0.879839     C
C     0.07911950000000006 0.879839 0.790279     C
C     0.07911959999999979 0.879839  0.75076     C
C     0.07911959999999996 0.7507590000000001 0.879839     C
C     0.07912029999999998 0.7902799999999999  0.75076     C
C     0.07912030000000009 0.7507600000000001 0.790279     C
C     0.08054929999999999 0.05812969999999999 0.160451     C
C     0.08054969999999999 0.160449 0.0581306     C
C     0.0805498 0.20086900000000002 0.0581306     C
C     0.08054999999999995 0.16045099999999998 0.200869     C
C     0.08054999999999995 0.200869 0.160451     C
C     0.08055030000000002 0.058129700000000006 0.200869     C
H     0.08359100000000003 0.41321199999999997 0.689306     H
H     0.08359160000000002  0.31389 0.413212     H
H     0.08359169999999999 0.689305 0.413212     H
H     0.08359179999999991 0.413211 0.313891     H
H     0.08359239999999993 0.689305 0.313891     H
H     0.08359249999999996 0.31389000000000006 0.689306     H
C     0.08499899999999994 0.28536000000000006 0.378861     C
C     0.08499899999999995 0.7507800000000001  0.28536     C
C     0.08499939999999997 0.7507800000000001 0.378861     C
C     0.0849997 0.37885899999999995  0.28536     C
C     0.08499979999999996 0.285359 0.750779     C
C     0.08499999999999996 0.37886000000000003 0.750779     C
C     0.08833969999999997 0.18320000000000003 0.18319899999999997     C
C     0.08834050000000002 0.045260199999999993 0.18319899999999997     C
C     0.08834100000000002 0.183199 0.045259499999999994     C
C     0.08869919999999998 0.19592000000000004   0.6523     C
C     0.08869919999999998 0.5630800000000001 0.19592099999999998     C
C     0.08869950000000001  0.19592 0.563079     C
C     0.08869969999999999 0.652299 0.19592099999999998     C
C       0.0887  0.56308   0.6523     C
C     0.08870080000000005   0.6523 0.563079     C
O     0.08893880000000003   0.7896 0.34929999999999994     O
O     0.08893960000000001 0.34930000000000005 0.789599     O
O     0.08893970000000002  0.27216 0.34929999999999994     O
O     0.0889397999999999 0.27216000000000007 0.789599     O
O     0.08893989999999992   0.3493 0.272159     O
O     0.08894030000000004 0.789599 0.272159     O
C     0.08921980000000004   0.3022 0.38368099999999994     C
C     0.08921999999999994 0.302199   0.7249     C
C     0.08921999999999997 0.724899 0.38368099999999994     C
C     0.08922019999999994 0.383679   0.7249     C
C     0.08922069999999999 0.724899 0.302199     C
C     0.08922079999999996  0.38368 0.302199     C
C     0.08954910000000002  0.22101  0.55665     C
C     0.08954910000000002 0.22101099999999999 0.632789     C
C     0.0895492  0.63279  0.22101     C
C     0.0895493  0.55665  0.22101     C
C     0.08954950000000009 0.6327890000000002  0.55665     C
C     0.08954969999999998  0.55665 0.632789     C
H     0.09164210000000002 0.14469299999999996 0.213109     H
H     0.09164249999999997 0.0505548 0.213109     H
H     0.09164269999999997 0.213108 0.144693     H
H     0.0916429 0.144693 0.0505549     H
H     0.09164290000000003 0.05055439999999999 0.144693     H
H     0.09164300000000002 0.213108 0.0505549     H
Cr    0.09319909999999988 0.823719  0.32188    Cr
Cr    0.09319929999999993 0.3218790000000001  0.82372    Cr
Cr    0.09319929999999996 0.321881   0.2612    Cr
Cr    0.09319970000000005 0.26119999999999993  0.82372    Cr
Cr    0.09320020000000002 0.261199  0.32188    Cr
Cr    0.09320050000000007 0.8237189999999999   0.2612    Cr
H     0.09338422482629188 0.3046395082850137 0.8915282454817137     H
H     0.09338425924524596 0.21044664255268195 0.30463961717628096     H
H     0.09338431730460055 0.8915289823658022 0.30463941062653144     H
F     0.09631009999999995 0.09631030000000002 0.700269     F
F     0.09631010000000007  0.60711 0.700269     F
O     0.09668970000000006 0.255511 0.291569     O
O     0.09668989999999994 0.255511 0.856229     O
O     0.0966901 0.29156999999999994 0.856229     O
O     0.0966903000000001 0.8562299999999999 0.291569     O
O     0.0966905 0.29156899999999997 0.255509     O
O     0.09669099999999999 0.856229 0.255509     O
C     0.09681940000000007   0.2835   0.3539     C
C     0.09681949999999999 0.765779   0.3539     C
C     0.09681980000000001 0.3538990000000001   0.2835     C
C     0.09682030000000003 0.353899 0.765779     C
C     0.09682060000000012 0.765779   0.2835     C
C     0.09682100000000005 0.28350000000000003 0.765779     C
H     0.10035599999999989 0.368048 0.717124     H
H     0.10035599999999992 0.717125 0.368048     H
H     0.10035599999999996 0.717125  0.31447     H
H     0.10035600000000006 0.31446999999999997 0.717124     H
H     0.10035699999999996 0.368048  0.31447     H
H     0.100357 0.31447100000000006 0.368048     H
C       0.1013 0.774699 0.888559     C
C     0.10130099999999997 0.888559 0.774699     C
C     0.10130100000000003 0.7354399999999999 0.888559     C
C     0.10130100000000009 0.735439 0.774699     C
C     0.10130100000000009 0.7746999999999998 0.735439     C
C     0.10130100000000009 0.8885609999999998 0.735439     C
C     0.10163999999999995 0.8650800000000001  0.26664     C
C     0.10164000000000001 0.26664000000000004  0.86508     C
C     0.10164100000000001 0.266639  0.26664     C
H     0.10240100000000005 0.223104 0.613114     H
H     0.10240199999999991 0.6131150000000001  0.56138     H
H     0.10240200000000003 0.6131139999999999 0.223103     H
H     0.102403 0.22310300000000002  0.56138     H
H     0.10240300000000001 0.5613799999999999 0.223103     H
H     0.1024030000000001  0.56138 0.613114     H
O     0.10383900000000001  0.66354   0.5823     O
O     0.10383900000000004 0.15032000000000004 0.6635399999999999     O
O     0.10383999999999993 0.5823010000000001  0.15032     O
O     0.10383999999999999 0.15032099999999998   0.5823     O
O     0.10383999999999999 0.6635390000000001  0.15032     O
O     0.10384000000000007 0.5822990000000001 0.6635399999999999     O
O     0.10404999999999995  0.29603 0.296031     O
O     0.10404999999999998 0.803889 0.296031     O
O     0.10405000000000003 0.296029 0.803889     O
C     0.10411999999999998 0.25297900000000006 0.252979     C
C     0.10411999999999998  0.88992 0.252979     C
C     0.10411999999999999 0.252979 0.8899199999999999     C
C     0.10731899999999994  0.17208   0.6465     C
C     0.10731899999999994 0.6465000000000001 0.574099     C
C     0.10731900000000005 0.5741000000000002   0.6465     C
C     0.10732000000000003  0.17208 0.574099     C
C     0.10732000000000003 0.574099  0.17208     C
C     0.10732000000000003 0.6464990000000002  0.17208     C
C     0.10930999999999998 0.18385899999999997 0.0229708     C
C     0.10930999999999999 0.02296939999999998  0.18386     C
C     0.10931100000000002  0.18386  0.18386     C
C     0.11007899999999993 0.7470200000000001  0.89588     C
C     0.11007899999999998  0.74702  0.74702     C
C     0.11007999999999984 0.8958800000000001  0.74702     C
N     0.110096275291998 0.29032365004990646 0.8858674976016248     N
N     0.11009632508982949 0.8858679735225578 0.2903236522349543     N
N     0.11009632674829992 0.2137110211515192 0.2903236204117215     N
H     0.11046699999999994 0.2845230000000001 0.216132     H
H     0.11046799999999996 0.216132 0.888877     H
H     0.11046800000000005 0.8888770000000001 0.216132     H
H     0.11112199999999989 0.7154769999999999 0.889532     H
H     0.11112199999999989 0.7838669999999999 0.889532     H
H     0.11112199999999989 0.889532 0.783867     H
H     0.111122 0.715476 0.783867     H
H     0.11112200000000011 0.783868 0.715477     H
H     0.11112200000000011 0.8895330000000004 0.715477     H
C     0.11143899999999997 0.2645600000000001   0.2253     C
C     0.11143899999999998 0.22529899999999997  0.26456     C
C     0.11143900000000001   0.8987  0.26456     C
C     0.11143900000000007  0.26456   0.8987     C
C     0.11144000000000004 0.22529899999999992   0.8987     C
C     0.11144000000000008   0.8987   0.2253     C
Cr    0.11381899999999998  0.11382  0.60876    Cr
Cr    0.11381899999999998 0.6087599999999999 0.113819    Cr
Cr    0.11381900000000003 0.663601 0.113819    Cr
Cr    0.11381999999999992 0.11382000000000003 0.663599    Cr
Cr     0.11382 0.6635990000000002  0.60876    Cr
Cr    0.11382000000000003  0.60876 0.663599    Cr
O     0.11525899999999992 0.7552000000000001 0.33722099999999994     O
O     0.115259 0.2923200000000001 0.755199     O
O     0.11525900000000006  0.29232 0.33722099999999994     O
O     0.11525900000000006 0.755201  0.29232     O
O     0.11526000000000003  0.33722  0.29232     O
O     0.11526000000000008 0.3372199999999999 0.755199     O
C     0.120159 0.24924099999999993 0.20971899999999996     C
C     0.12015999999999995 0.920879 0.20971899999999996     C
C     0.12015999999999999 0.2097199999999999 0.920879     C
C     0.12015999999999999 0.24924000000000002 0.920879     C
C      0.12016 0.209719 0.24923899999999996     C
C     0.12016000000000003 0.920879 0.24923899999999996     C
O     0.12076899999999997 0.018510300000000007 0.198869     O
O     0.12076899999999999 0.198871 0.0185096     O
O     0.12076999999999999  0.19887  0.16185     O
O     0.12077099999999998  0.16185 0.198869     O
O     0.12077100000000002 0.018509199999999996  0.16185     O
O     0.12077100000000004 0.16185000000000002 0.0185096     O
H     0.12211881773241778 0.6239581084853378 0.711628767020737     H
H     0.12211908222761506 1.04229492876064 0.7116275978691493     H
H     0.12211928272540057 0.7116268585588816 1.0422956987244347     H
C     0.12320900000000001 0.222151  0.93249     C
C     0.12320999999999996 0.22215000000000001 0.22214999999999996     C
C     0.12320999999999999 0.9324890000000001 0.22214999999999996     C
O      0.12367  0.62633  0.62633     O
O     0.12367000000000006 0.12367099999999998  0.62633     O
O     0.12367100000000003  0.62633 0.123669     O
H     0.12426999999999994 0.18910300000000002  0.25815     H
H     0.12426999999999995 0.258151 0.189103     H
H      0.12427 0.9284750000000002 0.189103     H
H     0.12427100000000002 0.18910299999999997 0.9284749999999999     H
H     0.12427100000000002  0.25815 0.9284749999999999     H
H     0.124272 0.9284750000000002  0.25815     H
H     0.12440011788136868 0.21093013360148027 0.05586294634550016     H
H     0.12440074274427064 0.05586042557611788 0.10880644853844683     H
H     0.12440134155680413 0.055860035032565675 0.2109291832522832     H
O     0.12511899999999992 0.578659 0.172381     O
O     0.1251190000000001  0.62384 0.172381     O
O     0.12511999999999995 0.17238000000000003 0.623839     O
O      0.12512 0.5786610000000001 0.623839     O
O     0.12512000000000004 0.1723790000000001  0.57866     O
O     0.12512000000000004 0.6238390000000001  0.57866     O
H     0.1258158770604853 0.2950504896777735 0.8707218566444762     H
H     0.12581592098493244 0.8707224233698991 0.29505059332138694     H
H     0.1258159835870537 0.20841037190582726 0.2950502996036519     H
O     0.1263789999999999 0.23225999999999997 0.816059     O
O     0.12637899999999996  0.81606 0.232259     O
O     0.12637999999999994   0.3253 0.232259     O
O      0.12638 0.232259   0.3253     O
O     0.12638000000000005  0.81606   0.3253     O
O     0.12638099999999997   0.3253 0.816059     O
O     0.12726899999999997 0.07595039999999997  0.63161     O
O     0.12726900000000002  0.63161 0.0759503     O
O     0.12726999999999994  0.66517  0.63161     O
O     0.12726999999999997 0.6316100000000001 0.6651699999999999     O
O     0.12727000000000002 0.07595070000000001 0.6651699999999999     O
O     0.12727000000000005 0.665169 0.0759503     O
C     0.12986900000000004 0.06290969999999999  0.65361     C
C     0.12986900000000007  0.65361 0.0629096     C
C      0.12987 0.6536090000000001  0.65361     C
H     0.1320493067311834 0.1849884275305704 0.34817531423427356     H
H     0.132049888068987 0.18498820579095304 0.8347880493131654     H
H     0.13205152678027116 0.34817651293023527 0.8347858055866719     H
H     0.13205189019904096 0.834788009384712 0.34817572195476243     H
H     0.13205429857651368 0.3481803666274621 0.1849791178120638     H
H     0.1320545859104712 0.8347895235483066 0.18497838036926245     H
Cr    0.13331900000000002 0.29931899999999995  0.29932    Cr
Cr     0.13332 0.768039  0.29932    Cr
Cr    0.13332000000000016 0.29932100000000006 0.768039    Cr
C     0.1349199999999999 0.898361 0.733359     C
C      0.13492  0.73336 0.733359     C
C     0.13492099999999996 0.733359 0.898359     C
C     0.13539999999999996  0.20626  0.20626     C
C     0.13540000000000008  0.20626 0.9520789999999999     C
C     0.13540000000000008 0.9520800000000001  0.20626     C
H     0.13637500802480895 0.18931412882419646 0.31640907097212106     H
H     0.13637661626852382 0.3164106885989245 0.8579014509414775     H
H     0.13637716535648609 0.3164152527377727 0.1893043552207959     H
H     0.13637729026292428 0.18931400529134423 0.8579017067823199     H
H     0.13637790998789487 0.8579024311459258 0.3164092606158402     H
H     0.13638060569932492 0.8579039453095214 0.18930440015811692     H
F     0.13814900000000002  0.23981  0.13815     F
H     0.13905185545124887 0.2354240158013256 0.03628937319451857     H
H     0.1390530792002156 0.03628646188698825 0.2354230653950207     H
H     0.13905358276110147 0.0362876891352381 0.08923331899196246     H
O     0.13920899999999992  0.21553  0.96219     O
O     0.13920899999999994 0.9621890000000001 0.183071     O
O     0.13920899999999997 0.18306999999999995  0.96219     O
O     0.13920899999999997 0.21553000000000003 0.183071     O
O     0.13920999999999994 0.18307000000000007 0.215529     O
O     0.13920999999999994 0.9621890000000001 0.215529     O
N     0.13947691089920952 0.21715743549626246 0.04932894522889572     N
N     0.13947776962894537 0.04932730219620931 0.09403591989205419     N
N     0.13947780440335644 0.04932657665317047 0.21715674156965067     N
N     0.14028802692832523 0.6252452902318419 0.7001851643061358     N
N     0.14028824634200004 1.0342816843667657 0.700184268620148     N
N     0.14028840120765784 0.7001836364307519 1.0342822248809918     N
H     0.1411099999999999 0.6976179999999998 0.630632     H
H     0.14111199999999996 0.030637899999999996 0.630632     H
H     0.14111199999999996 0.6306310000000002 0.0306382     H
C     0.14207999999999996 0.6618400000000001 0.0342399     C
C      0.14208 0.0342411 0.661839     C
C     0.14208000000000007 0.661839 0.661839     C
H     0.14209454999438917 0.8106932448200431 0.6835902614193163     H
H     0.14209586737475277 0.810686475838147 0.8636221604799061     H
H     0.14209637213430687 0.6835937590104809 0.8106851434156963     H
N     0.14314844824425127 0.18787977454221644 0.3289833469801124     N
N     0.14314976351799918 0.18787964849036243 0.8399885300031138     N
N     0.1431501157162267 0.32898437516143925 0.8399876174626576     N
N     0.14315072070316698 0.8399887798762645 0.32898356506545806     N
N     0.14315132810252362 0.3289877181809587 0.1878722679326313     N
N     0.14315295884167156 0.8399898854560324 0.18787201511317028     N
C     0.14358899999999986 0.6867100000000002 0.6493090000000001     C
C     0.14358899999999994 0.020390400000000003 0.6867099999999999     C
C     0.14358900000000002 0.6867099999999999 0.020390399999999996     C
C     0.14358900000000005  0.64931 0.6867099999999999     C
C     0.14358999999999994 0.020389799999999986 0.6493090000000001     C
C     0.14358999999999994 0.649309 0.020390399999999996     C
O     0.14376899999999984 0.7084300000000001  0.74449     O
O     0.1437689999999999 0.7444900000000001 0.7084299999999999     O
O     0.143771 0.903309  0.74449     O
O     0.14377100000000012 0.9033100000000001 0.7084299999999999     O
O     0.14377100000000015 0.708429 0.903309     O
O     0.14377100000000015 0.744489 0.903309     O
H     0.144693 0.213108 0.09164359999999999     H
H     0.14469300000000002 0.09164379999999998 0.213109     H
H     0.144694 0.0916433 0.0505549     H
Cr     0.14579  0.60421 0.604209    Cr
Cr    0.14579000000000006  0.14579 0.604209    Cr
Cr    0.14579099999999995 0.604209  0.14579    Cr
C     0.14588899999999994 0.687249  0.97961     C
C     0.145889 0.9796090000000002 0.6872499999999999     C
C     0.14589000000000008 0.6872500000000001 0.6872499999999999     C
C     0.14830899999999997 0.23696900000000004  0.80369     C
C     0.14830899999999997  0.80369  0.23697     C
C      0.14831 0.31102900000000006  0.80369     C
C     0.14831000000000003 0.23697000000000004  0.31103     C
C     0.14831000000000003 0.311029  0.23697     C
C     0.14831000000000014 0.803689  0.31103     C
C     0.1484189999999998 0.9925599999999999 0.660999     C
C     0.1484189999999999 0.6609999999999999 0.992559     C
C      0.14842 0.698019 0.660999     C
C      0.14842 0.698019 0.992559     C
C     0.14842000000000002 0.6609989999999999  0.69802     C
C     0.14842000000000002 0.9925589999999999  0.69802     C
O     0.1503190000000001  0.66354   0.5823     O
O     0.15031900000000012 0.10384000000000007 0.6635399999999999     O
O      0.15032   0.5823  0.10384     O
O     0.15032000000000004 0.5822990000000001 0.6635399999999999     O
O     0.15032000000000006 0.10383999999999999   0.5823     O
O     0.15032000000000006 0.663539  0.10384     O
O     0.15044899999999994 0.7848110000000001 0.259089     O
O     0.15044900000000005 0.7848100000000001 0.305651     O
O     0.15044999999999997  0.25909 0.305651     O
O     0.15045000000000008 0.25909000000000004 0.784809     O
O     0.15045000000000008 0.30564899999999995 0.784809     O
O     0.150451 0.3056499999999999 0.259089     O
Cr    0.1522699999999999 0.15226999999999996  0.98957    Cr
Cr    0.15226999999999996  0.15227 0.20588999999999996    Cr
Cr    0.15226999999999996 0.205889 0.152271    Cr
Cr    0.15227000000000007 0.205889  0.98957    Cr
Cr    0.1522700000000001 0.9895690000000001 0.20588999999999996    Cr
Cr    0.15227099999999988 0.989569 0.152271    Cr
H     0.15407299999999988 0.9814909999999999 0.715044     H
H     0.15407299999999993 0.6493910000000002 0.715044     H
H     0.15407299999999996 0.715044 0.649391     H
H     0.15407399999999993 0.981491 0.649391     H
H     0.154074  0.64939 0.981491     H
H     0.15407400000000004 0.715043 0.981491     H
H     0.15601738646255994 0.6087455125844901 0.6987014656438957     H
H     0.15601772297003758 1.0365359110265868 0.6987001813947334     H
H     0.15601794666948782 0.6986991890557868 1.0365366216017602     H
F     0.15624900000000005 0.9220089999999999  0.65545     F
F     0.15624999999999994 0.655449 0.766289     F
C     0.15849999999999986 0.6946990000000001   0.9521     C
C     0.15850000000000006 0.6947000000000001 0.6946989999999998     C
C     0.15850099999999998 0.952099 0.6946989999999998     C
N     0.1600085451128785 0.8121257908086439 0.6710161218229088     N
N     0.16000891947100926 0.8121210252484004 0.856849877302469     N
N     0.16000928802879666 0.6710183697948815 0.8121200523728497     N
H     0.16036345258876267 0.5427707333280678 0.0903827253569197     H
H     0.16036371463769833 0.09038086471878864 0.5427706007609623     H
H     0.16036466020481985 0.706484776863481 0.5427713617760492     H
H     0.1603657516899619 0.09037861838735953 0.7064844790652772     H
H     0.16036621926349462 0.7064835888962523 0.09038277834333523     H
H     0.1603665408241152 0.5427664236565587 0.7064841037665089     H
C     0.16044999999999998 0.20086900000000002 0.0581306     C
C      0.16045 0.05813020000000001 0.0805499     C
C     0.16045000000000004 0.058129700000000006 0.200869     C
C     0.16045000000000004 0.0805497 0.0581306     C
C     0.160451 0.0805494 0.200869     C
C     0.16045100000000007 0.20086900000000002 0.0805499     C
H     0.16074476382362327 0.5719029422156967 0.0634510212333989     H
H     0.16074484274646494 0.06344992527681892 0.5719034138400029     H
H     0.16074575323730103 0.703902803079516 0.0634514029317475     H
H     0.16074580788369142 0.5718993601075544 0.7039029054193546     H
H     0.1607471469213943 0.7039005933886647 0.5719040261786833     H
H     0.16074801816983048 0.06344741025888939 0.7039009203220594     H
O      0.16185 0.01850949999999999 0.120769     O
O      0.16185 0.018510300000000007 0.198869     O
O      0.16185 0.12077099999999998 0.198869     O
O      0.16185  0.19887 0.120769     O
O      0.16185 0.198871 0.0185096     O
O     0.16185000000000002 0.12077000000000002 0.0185096     O
H     0.1641809999999999 0.8517249999999998 0.673188     H
H     0.16418199999999994 0.8517240000000001 0.810906     H
H     0.164182 0.673187 0.851723     H
H     0.16520886856757666 0.8150131585379062 0.8679496773485965     H
H     0.16520916053219076 0.8150187039166772 0.6518238983564772     H
H     0.16520937333587488 0.6518265582537595 0.8150118261273266     H
C     0.16732899999999995 0.189851  0.32003     C
C     0.16732999999999998 0.18985100000000005 0.822789     C
C     0.16732999999999998 0.32003000000000004 0.822789     C
C     0.16732999999999998 0.32003099999999995 0.189849     C
C     0.16732999999999998 0.822789  0.32003     C
C     0.16733099999999992 0.822789 0.189849     C
F     0.16762899999999997  0.58237 0.167631     F
O     0.16921900000000006 0.674679  0.94354     O
O     0.1692190000000001  0.67468 0.712559     O
O     0.16921900000000012 0.7125599999999999  0.94354     O
O     0.16921900000000015  0.71256 0.674679     O
O     0.16922000000000012 0.9435399999999999 0.712559     O
O     0.16922000000000023 0.9435390000000001 0.674679     O
N     0.16952225361087087 0.5560127704366125 0.07628369796154488     N
N     0.16952237809263107 0.07628237571268218 0.5560128942194     N
N     0.16952383434766524 0.6981814843777676 0.5560133956025215     N
N     0.16952389472251264 0.6981818573879788 0.07628385665598258     N
N     0.16952403206792954 0.5560096194694382 0.6981820827186487     N
N     0.16952482074246372 0.07628047553751943 0.6981814950144245     N
C     0.17078899999999989 0.8043090000000002 0.21449099999999996     C
C     0.1707889999999999 0.31040899999999993 0.8043099999999999     C
C     0.1707889999999999 0.804309  0.31041     C
C     0.17078899999999997 0.21449000000000001 0.8043099999999999     C
C     0.170789 0.31040900000000005 0.21449099999999996     C
C     0.17078900000000002 0.21449000000000001  0.31041     C
O     0.17084299999999997 0.17084300000000002 0.17084299999999997     O
O     0.17084300000000002 0.170844 0.987469     O
O     0.17084300000000002 0.9874700000000001 0.17084299999999997     O
H     0.17105684547993077 0.9241563458977982 0.14388149440738995     H
H     0.17105703639800462 0.1438829481619247 0.26090316271475866     H
H     0.17105703639800468 0.26090416271475864 0.14388194816192487     H
H     0.1710576882328549 0.14388385232824974 0.9241508058893967     H
H     0.1710587909500031 0.9241522638963473 0.26090364910544306     H
H     0.17105896860961506 0.26090521246312975 0.9241513897648316     H
C     0.1720799999999999 0.10732000000000003   0.6465     C
C     0.1720799999999999 0.5741000000000002   0.6465     C
C     0.17208100000000004   0.5741 0.107319     C
C     0.17208100000000004 0.6464989999999999 0.107319     C
C     0.17208100000000004 0.6465000000000001 0.574099     C
C     0.1720810000000001 0.10732000000000003 0.574099     C
O     0.1723799999999999 0.6238390000000001  0.57866     O
O     0.17237999999999998 0.5786610000000001 0.623839     O
O     0.17238000000000003 0.12511999999999995 0.623839     O
O     0.17238000000000003 0.6238410000000001 0.125119     O
O     0.1723809999999999 0.578659 0.125119     O
O     0.1723810000000001 0.12511999999999998  0.57866     O
H     0.17543510325355566 0.11120521083973278 0.94513070796585     H
H     0.17543529036452443 0.2682275283299775 0.9451313077202188     H
H     0.1754353859680683 0.9451330690854047 0.26822452163249355     H
H     0.17543550894234036 0.26822475893309794 0.11120316483462069     H
H     0.1754355089423405 0.11120416483462063 0.2682237589330979     H
H     0.175435848601031 0.9451356564647044 0.11120253410144389     H
Cr    0.17627899999999988   0.7388 0.678119    Cr
Cr    0.17627899999999996  0.67812 0.7387989999999999    Cr
Cr    0.17627999999999994 0.6781190000000001   0.9068    Cr
Cr    0.17628000000000013 0.9067999999999999 0.678119    Cr
Cr    0.17628099999999997 0.738799   0.9068    Cr
Cr    0.17628100000000002 0.906799 0.7387989999999999    Cr
C     0.1772089999999999  0.67997 0.810149     C
C     0.177209 0.810149  0.83267     C
C     0.177209 0.8101499999999999  0.67997     C
C     0.17721000000000003  0.67997  0.83267     C
C     0.17721000000000003 0.8326689999999999  0.67997     C
C     0.1772100000000001 0.8326689999999999 0.810149     C
O     0.18306899999999987 0.9621900000000001 0.139211     O
O     0.18306900000000004  0.13921  0.96219     O
O     0.18306900000000004  0.21553 0.139211     O
O     0.18306999999999995  0.21553  0.96219     O
O      0.18307  0.13921 0.215529     O
O     0.18307099999999998 0.9621890000000001 0.215529     O
N     0.18308838956869733 0.125551168236834 0.2604282888555667     N
N     0.18308838956869733 0.2604292888555666 0.12555016823683407     N
N     0.18308844387082734 0.930931365941866 0.1255497723127489     N
N     0.18308847943154677 0.125552150045454 0.9309272669630266     N
N     0.18308925506532758 0.9309286612473064 0.2604287448725801     N
N     0.1830892850223047 0.2604306831466901 0.9309276990818439     N
C     0.18319999999999992 0.183199  0.08834     C
C     0.18319999999999997 0.0452598  0.08834     C
C     0.18319999999999997 0.08833920000000003 0.18319899999999997     C
C       0.1832 0.08834060000000002 0.045259499999999994     C
C     0.18320100000000003 0.045260199999999993 0.18319899999999997     C
C     0.18320100000000006 0.183199 0.045259499999999994     C
C     0.183859 0.18385899999999997 0.0229708     C
C     0.1838599999999999 0.18385899999999997 0.109309     C
C     0.18385999999999997 0.022970899999999995 0.109309     C
C     0.18385999999999997 0.109309 0.0229708     C
C      0.18386 0.10930900000000002  0.18386     C
C     0.18386000000000002 0.02296939999999998  0.18386     C
O     0.18393900000000013 0.7677400000000001   0.6747     O
O     0.18393999999999988 0.674699  0.87362     O
O     0.18393999999999994 0.8736199999999998   0.6747     O
O      0.18394 0.6746989999999999 0.767739     O
O      0.18394 0.7677379999999999  0.87362     O
O     0.1839409999999999 0.8736190000000001 0.767739     O
H     0.189093 0.835818 0.3268130000000001     H
H     0.18909399999999998 0.14827599999999996 0.3268130000000001     H
H     0.18909400000000004 0.14827600000000002 0.835818     H
H     0.18909400000000004 0.326812 0.148275     H
H     0.1890940000000001 0.3268119999999999 0.835818     H
H     0.1890940000000001 0.835818 0.148275     H
C     0.189849 0.822789 0.167331     C
C     0.18984999999999996 0.16732999999999998  0.32003     C
C     0.18984999999999996 0.16733000000000003 0.822789     C
C     0.18984999999999996 0.822789  0.32003     C
C     0.189851 0.320029 0.167331     C
C     0.189851 0.32003000000000004 0.822789     C
H     0.19045999999999996 0.230937 0.315232     H
H     0.19045999999999996 0.315232  0.76337     H
H     0.19045999999999996 0.763369 0.315232     H
H     0.19045999999999996 0.7633700000000001 0.230938     H
H     0.19046000000000002 0.315232 0.230938     H
H     0.19046099999999994 0.23093699999999995  0.76337     H
C     0.1918399999999999 0.21434000000000003  0.78062     C
C      0.19184 0.31319899999999995  0.21434     C
C     0.19184000000000007  0.78062  0.21434     C
C     0.19184100000000004 0.21434000000000003 0.31319899999999995     C
C     0.19184100000000004 0.7806199999999999 0.31319899999999995     C
C     0.1918410000000001 0.313199  0.78062     C
C     0.19378899999999993  0.55243 0.0745704     C
C     0.19378900000000002 0.07456949999999998  0.55243     C
C     0.19378999999999993  0.67921  0.55243     C
C      0.19379 0.552429  0.67921     C
C     0.19379000000000002  0.67921 0.0745704     C
C     0.19379100000000007 0.07456889999999997  0.67921     C
C     0.1956889999999999  0.82921  0.78551     C
C      0.19569 0.829208 0.689591     C
C     0.19569000000000003 0.6895889999999999 0.829209     C
C     0.19569000000000003  0.78551 0.829209     C
C     0.19569000000000009 0.6895889999999999  0.78551     C
C     0.1956900000000001 0.7855080000000001 0.689591     C
C     0.19591799999999993  0.56308   0.6523     C
C     0.1959190000000001   0.6523 0.563079     C
C     0.19591999999999996 0.08870039999999998 0.563079     C
C     0.19591999999999998 0.08870050000000002   0.6523     C
C      0.19592 0.652299 0.08870059999999999     C
C     0.19592000000000012  0.56308 0.08870059999999999     C
O     0.19610899999999992  0.89595 0.7039699999999999     O
O     0.19610999999999995 0.7039689999999998 0.7039699999999999     O
O     0.19611000000000017 0.7039689999999998 0.8959499999999999     O
C     0.196309 0.688969  0.85169     C
C     0.19630900000000012 0.6889699999999999 0.763031     C
C      0.19631 0.763029 0.688969     C
C     0.19631000000000004 0.851688 0.763031     C
C     0.19631000000000007  0.85169 0.688969     C
C     0.1963100000000001 0.763029  0.85169     C
H     0.1974046557060573 0.9558165709932673 0.6170285423194106     H
H     0.1974051027018874 0.6170325927542732 0.7297412876821339     H
H     0.19740543606348432 0.729744203723951 0.9558186017005966     H
H     0.19740571065064122 0.6170322836020872 0.955818323005774     H
H     0.197406064220545 0.9558162434002753 0.7297450293317067     H
H     0.19740614219011401 0.7297425694653538 0.6170282018233156     H
O     0.19886900000000005 0.12077000000000002 0.0185096     O
O     0.19887000000000002 0.01850949999999999 0.120769     O
O     0.19887099999999996 0.12076900000000002  0.16185     O
O     0.19887100000000002 0.018509199999999996  0.16185     O
O     0.19887100000000002  0.16185 0.120769     O
O     0.19887100000000005 0.16185000000000002 0.0185096     O
C     0.200869 0.05812969999999999 0.160451     C
C     0.200869 0.08054929999999999 0.160451     C
C     0.20086999999999997 0.05813020000000001 0.0805499     C
C     0.20086999999999997 0.160449 0.0581306     C
C      0.20087 0.0805497 0.0581306     C
C      0.20087 0.160449 0.0805499     C
H     0.2026226738447648 0.6071440324700077 0.7589551909750127     H
H     0.20262411162600594 0.7589562215743102 0.6071397540860762     H
H     0.20262449028481822 0.607142927334798 0.9312754484155644     H
H     0.2026252149752033 0.758957015393485 0.9312750508123898     H
H     0.2026267604455559 0.9312721983059316 0.7589573013192572     H
H     0.2026268694893043 0.9312722297389133 0.6071390952641084     H
Cr    0.20588899999999988 0.15226999999999996  0.98957    Cr
Cr    0.20588899999999993 0.15226999999999996 0.152271    Cr
Cr    0.20588899999999993 0.989569 0.152271    Cr
C     0.2062589999999999 0.9520800000000001   0.1354     C
C      0.20626 0.13539999999999996  0.20626     C
C      0.20626  0.20626 0.9520789999999999     C
C      0.20626 0.9520800000000001  0.20626     C
C     0.20626000000000003 0.206261   0.1354     C
C     0.2062600000000001 0.13539999999999996 0.9520789999999999     C
C     0.2097199999999999 0.12016099999999996 0.920879     C
C     0.20971999999999996  0.92088 0.12015899999999999     C
C     0.20972000000000002  0.12016 0.24923899999999996     C
C     0.20972000000000002 0.24923999999999996 0.12015899999999999     C
C     0.20972100000000005 0.24924000000000002 0.920879     C
C     0.20972100000000005 0.920879 0.24923899999999996     C
N     0.2098266961995716 0.6096305139707692 0.7395857461764185     N
N     0.2098278511351679 0.6096299976436249 0.9409545514712823     N
N     0.20982787044080564 0.7395865903795598 0.6096270791415239     N
N     0.2098280154585686 0.7395874768206514 0.9409545080602968     N
N     0.20982833459513195 0.9409524669339707 0.6096269629273166     N
N     0.20982907884635432 0.9409523358609959 0.7395878826186059     N
O     0.21039900000000006 0.7278389999999999  0.91106     O
O     0.21039900000000006  0.91106  0.72784     O
O     0.21039900000000014 0.7278389999999999 0.6506999999999998     O
O     0.21039999999999998 0.6506990000000001  0.91106     O
O       0.2104 0.911059 0.6506999999999998     O
O     0.21040000000000003 0.6506990000000001  0.72784     O
H     0.213108 0.09164340000000001 0.144693     H
H     0.213108 0.144693 0.09164359999999999     H
H     0.21310899999999994 0.0916433 0.0505549     H
H     0.21310899999999997 0.05055439999999999 0.144693     H
H     0.213109 0.05055509999999999 0.09164359999999999     H
H     0.213109 0.144693 0.0505549     H
C     0.2143389999999999  0.19184  0.78062     C
C     0.21433899999999992 0.31320099999999995 0.191839     C
C     0.214339 0.313199  0.78062     C
C     0.21433900000000006 0.19184100000000004 0.31319899999999995     C
C     0.21433900000000006 0.7806199999999999 0.31319899999999995     C
C     0.2143400000000001  0.78062 0.191839     C
C     0.21448899999999999 0.804309  0.31041     C
C     0.2144890000000001 0.17079000000000005 0.8043099999999999     C
C     0.2144890000000001 0.31040899999999993 0.8043099999999999     C
C      0.21449  0.31041  0.17079     C
C      0.21449 0.8043100000000001  0.17079     C
C     0.21449000000000007  0.17079  0.31041     C
O     0.21518899999999996  0.69435 0.8495500000000001     O
O     0.21518899999999996 0.849549  0.69435     O
O      0.21519  0.69435 0.740909     O
O      0.21519 0.740909  0.69435     O
O     0.21519000000000005 0.740909 0.8495500000000001     O
O     0.2151910000000002 0.8495489999999999 0.740909     O
O     0.21552899999999997  0.13921  0.96219     O
O     0.2155299999999999 0.18306999999999995  0.96219     O
O     0.21552999999999992 0.9621890000000001 0.183071     O
O     0.21552999999999994 0.183069 0.139211     O
O     0.21552999999999994 0.9621900000000001 0.139211     O
O     0.21553000000000003 0.13921000000000003 0.183071     O
H     0.21613199999999988 0.888878 0.284522     H
H     0.216132 0.11046799999999998 0.284522     H
H     0.216132 0.2845230000000001 0.888877     H
H     0.21613299999999985 0.888876 0.110467     H
H     0.2161329999999999 0.11046600000000001 0.888877     H
H     0.21613299999999996 0.28452299999999997 0.110467     H
H     0.21639099999999994 0.7054109999999999 0.533626     H
H     0.21639099999999997 0.7054109999999999 0.0445715     H
H     0.216391 0.0445701 0.533626     H
H     0.21639100000000003 0.533625 0.0445715     H
H     0.21639100000000006 0.04457159999999999 0.705411     H
H     0.21639200000000003 0.533626 0.705411     H
C     0.2168589999999999  0.53806  0.68642     C
C     0.216859  0.68642  0.53806     C
C     0.21685999999999994 0.05865999999999999  0.68642     C
C     0.21685999999999997 0.05865970000000004  0.53806     C
C     0.21686000000000005 0.6864189999999999 0.0586608     C
C     0.21686099999999997 0.5380590000000001 0.0586608     C
C     0.219379 0.808159 0.7856599999999999     C
C     0.21937999999999985 0.6867999999999999 0.808159     C
C     0.21937999999999996 0.6867989999999999 0.7856599999999999     C
C      0.21938 0.7856600000000001   0.6868     C
C      0.21938 0.8081600000000001   0.6868     C
C     0.21938000000000002 0.785659 0.808159     C
C     0.22100899999999993 0.6327900000000001 0.0895504     C
C     0.22100900000000004  0.55665 0.0895504     C
C      0.22101 0.08954999999999999  0.55665     C
C      0.22101 0.08955020000000005 0.632789     C
C     0.22101099999999999  0.55665 0.632789     C
C     0.22101099999999999 0.6327890000000002  0.55665     C
C     0.22214900000000004 0.12321100000000001  0.93249     C
C     0.2221499999999999 0.9324890000000001 0.22214999999999996     C
C     0.22214999999999996 0.222151  0.93249     C
C     0.22214999999999996 0.932489 0.123209     C
C     0.22215000000000001 0.12321000000000001 0.22214999999999996     C
C     0.22215000000000007 0.222151 0.123209     C
H     0.22310199999999994 0.10240200000000002 0.613114     H
H     0.22310199999999994 0.6131150000000001  0.56138     H
H     0.22310299999999983 0.5613810000000001 0.102402     H
H     0.22310299999999988 0.613113 0.102402     H
H     0.22310300000000002  0.56138 0.613114     H
H     0.22310400000000005 0.10240200000000002  0.56138     H
C     0.22529899999999997 0.11143999999999998  0.26456     C
C     0.22529899999999997 0.264561 0.111439     C
C     0.22529999999999994 0.11144100000000001   0.8987     C
C       0.2253   0.8987  0.26456     C
C     0.22530000000000006  0.26456   0.8987     C
C     0.22530099999999992 0.8986990000000001 0.111439     C
H     0.23093700000000006 0.315232  0.76337     H
H     0.23093799999999992 0.19045999999999996  0.76337     H
H     0.23093799999999995 0.31523200000000007 0.190459     H
H     0.23093799999999998 0.19046000000000002 0.315232     H
H     0.23093799999999998 0.763369 0.315232     H
H     0.23093800000000017 0.7633699999999999 0.190459     H
Cr    0.23195999999999992 0.8666800000000001  0.70068    Cr
Cr     0.23196  0.70068  0.86668    Cr
Cr    0.23196000000000003 0.7006790000000002  0.70068    Cr
O     0.23225899999999997 0.32530000000000003  0.12638     O
O     0.232259  0.81606   0.3253     O
O     0.23225900000000005  0.12638   0.3253     O
O     0.23225999999999997  0.12638 0.816059     O
O     0.23225999999999997   0.3253 0.816059     O
O     0.23226000000000005 0.816059  0.12638     O
F     0.233709 0.8437490000000001 0.34455099999999994     F
F     0.23370999999999992 0.34454900000000005  0.84375     F
C     0.23421999999999982 0.903179 0.646099     C
C     0.23421999999999987 0.7165009999999998 0.903179     C
C     0.23421999999999993 0.6460999999999999   0.7165     C
C     0.23422000000000004 0.9031789999999997   0.7165     C
C     0.2342200000000001 0.6460999999999999 0.903179     C
C     0.23422100000000007 0.716499 0.646099     C
C     0.236379 0.6029800000000001 0.726699     C
C     0.23637999999999976 0.6029800000000001  0.93394     C
C     0.23637999999999998 0.726699  0.93394     C
C     0.23638000000000006 0.7266989999999999 0.602979     C
C     0.23638000000000006 0.933939 0.602979     C
C     0.23638100000000006 0.933939 0.726699     C
H     0.2366279999999999 0.684769 0.769063     H
H     0.23662899999999987 0.684768 0.809539     H
H     0.23662899999999992 0.8095390000000002 0.769063     H
H     0.236629 0.809539 0.684769     H
H     0.23662900000000006 0.769062 0.684769     H
H     0.2366290000000002 0.7690620000000001 0.809539     H
C     0.23696900000000004 0.14831099999999997  0.80369     C
C     0.2369690000000001 0.8036889999999999 0.148311     C
C     0.23696999999999996 0.311029 0.148311     C
C     0.23696999999999996 0.31102900000000006  0.80369     C
C      0.23697 0.148309  0.31103     C
C     0.2369700000000001 0.803689  0.31103     C
F      0.23981  0.98389  0.13815     F
F     0.239811 0.13814900000000002  0.98389     F
C     0.24016900000000002 0.529911 0.0620091     C
C     0.24016900000000005 0.062010499999999996  0.52991     C
C     0.2401699999999999  0.66791  0.52991     C
C      0.24017 0.667911 0.0620091     C
C     0.24017000000000005  0.52991  0.66791     C
C     0.2401700000000001 0.06200919999999999  0.66791     C
H     0.2410410758200166 0.3928586962384237 0.7973728552674128     H
H     0.2410414600650457 0.7973733252462559 0.06872444396690174     H
H     0.24104178176406854 0.0687231092778548 0.797373839912845     H
H     0.24104315376560442 0.7973749755250692 0.3928521707691782     H
H     0.2410436142681683 0.3928558201523005 0.06872449411801869     H
H     0.24104382255589688 0.06872694452656813 0.3928523636530519     H
H     0.242151 0.7343999999999999   0.5635     H
H     0.24215100000000006 0.9599470000000001   0.5635     H
H     0.24215199999999992 0.563499 0.9599469999999999     H
H     0.24215199999999998 0.959948   0.7344     H
H     0.24215200000000003 0.563499   0.7344     H
H     0.24215200000000003 0.7343999999999999 0.9599469999999999     H
C     0.2432689999999999  0.64041 0.0726506     C
C     0.24326899999999996 0.07264970000000004  0.64041     C
C     0.24326999999999988 0.07264969999999998 0.543669     C
C     0.24326999999999993 0.543669 0.0726506     C
C      0.24327 0.543671  0.64041     C
C     0.24327100000000002 0.640409 0.543669     C
O     0.24479900000000004 0.7076810000000002 0.8847389999999999     O
O     0.2447999999999998 0.8847390000000002  0.66278     O
O     0.24480000000000002  0.88474 0.707679     O
O     0.24480099999999994 0.7076790000000001  0.66278     O
O     0.24480100000000005 0.662779 0.707679     O
O     0.2448010000000002 0.662779 0.8847389999999999     O
C     0.24921999999999972  0.62114 0.914999     C
C     0.24921999999999972 0.9149990000000001 0.714639     C
C     0.24921999999999989 0.9149989999999998  0.62114     C
C     0.24921999999999994 0.714639 0.914999     C
C     0.24922100000000003  0.62114 0.714639     C
C     0.24922100000000003 0.714639  0.62114     C
C     0.249239 0.12016099999999996 0.920879     C
C     0.2492399999999999 0.2097199999999999 0.920879     C
C     0.2492399999999999 0.920879 0.20971899999999996     C
C     0.24923999999999996  0.92088 0.12015899999999999     C
C     0.24924000000000002  0.12016 0.20971899999999996     C
C     0.24924000000000002 0.20972000000000002 0.12015899999999999     C
F     0.250459 6.477599999998862e-07      0.5     F
F     0.25045900000000004      0.5      0.0     F
F      0.25046 2.648839999841446e-07  0.74954     F
F      0.25046  0.74954      0.0     F
C     0.251289 0.5778690000000001  0.72529     C
C     0.251289  0.72529  0.57787     C
C     0.251289 0.9455500000000001  0.72529     C
C     0.2512899999999999 0.945549  0.57787     C
C      0.25129  0.57787 0.9455499999999999     C
C     0.2512900000000001 0.7252890000000001 0.9455499999999999     C
C     0.2529799999999999 0.252981 0.104119     C
C     0.25298000000000004 0.10411900000000002 0.8899199999999999     C
C     0.25298000000000004 0.8899190000000001 0.104119     C
C     0.25298099999999996 0.104119 0.252979     C
C     0.252981  0.88992 0.252979     C
C     0.25298100000000007 0.252979 0.8899199999999999     C
O     0.25423899999999994 0.700699 0.0302795     O
O     0.254239 0.030280299999999954   0.7007     O
O     0.2542399999999999 0.7007000000000001  0.51478     O
O      0.25424 0.514779   0.7007     O
O     0.25424099999999994 0.030279399999999984  0.51478     O
O     0.25424100000000005 0.5147799999999999 0.0302795     O
O     0.25550999999999996 0.09668939999999993 0.856229     O
O     0.25550999999999996 0.29156999999999994 0.856229     O
O      0.25551 0.09668960000000003 0.291569     O
O      0.25551  0.29157 0.0966895     O
O      0.25551 0.856229 0.0966895     O
O     0.2555100000000001 0.8562299999999999 0.291569     O
F     0.2557199999999999 0.7064189999999999  0.83144     F
H     0.2581499999999999  0.12427 0.189103     H
H     0.2581499999999999 0.9284750000000002 0.189103     H
H      0.25815 0.189104  0.12427     H
H     0.258151 0.124272 0.9284749999999999     H
H     0.258151 0.18910299999999997 0.9284749999999999     H
H     0.2581510000000001 0.928475  0.12427     H
O     0.25908899999999996 0.150449 0.305651     O
O     0.259089  0.30565 0.150451     O
O     0.2590899999999998 0.7848100000000001 0.305651     O
O     0.2590899999999999  0.78481 0.150451     O
O     0.25909099999999996 0.15045000000000003 0.784809     O
O     0.25909100000000007 0.30564899999999995 0.784809     O
N     0.26041064146997495 0.3903710390895152 0.7901708297979506     N
N     0.260411095404619 0.790170908954509 0.05904502892683585     N
N     0.2604115255190136 0.05904431479900901 0.7901709797214083     N
N     0.2604123863779826 0.7901721774453176 0.3903661246927101     N
N     0.2604130729238048 0.05904705415415523 0.39036647910306727     N
N     0.26041309984674726 0.3903688473483479 0.059045054822675296     N
C     0.26080899999999996 0.045769700000000024  0.51607     C
C     0.26080899999999996 0.04577050000000002 0.677349     C
C     0.26080899999999996  0.51607 0.0457701     C
C     0.26080899999999996 0.6773500000000001 0.0457701     C
C     0.260809 0.6773499999999999  0.51607     C
C      0.26081 0.5160689999999999 0.677349     C
Cr    0.2611989999999999 0.09320040000000002  0.82372    Cr
Cr    0.26119899999999996  0.82372 0.0932008    Cr
Cr    0.261199 0.3218790000000001  0.82372    Cr
Cr    0.26119900000000007 0.823719  0.32188    Cr
Cr    0.26120000000000004  0.32188 0.0932008    Cr
Cr    0.261201 0.0931993  0.32188    Cr
H     0.26197517320646396 1.0249334585858785 0.35498372641429365     H
H     0.2619752961489144 0.8581107846439977 1.024926834142508     H
H     0.26197554529132866 0.8581094931806426 0.35498526972033384     H
H     0.261975574890265 0.02492974902209749 0.8581095036504925     H
H     0.2619756713555177 0.35498342769960245 0.858109084860966     H
H     0.2619760880765219 0.3549894050438071 1.0249275906638176     H
H     0.26217200000000007 0.626369 0.543827     H
H     0.26217299999999993 0.626369  0.06763     H
H     0.262173 0.06762959999999998 0.626369     H
H     0.262173 0.06763019999999997 0.543827     H
H     0.2621730000000001 0.543827 0.626369     H
H     0.2621739999999999 0.543827  0.06763     H
C     0.2645589999999999 0.11144100000000001   0.8987     C
C     0.2645599999999999 0.22529899999999992   0.8987     C
C      0.26456   0.8987   0.2253     C
C     0.2645600000000001 0.11144000000000003   0.2253     C
C     0.2645600000000001   0.2253 0.111439     C
C     0.2645600000000001 0.8986990000000001 0.111439     C
H     0.2655989999999999 0.040052499999999935 0.757848     H
H     0.26559999999999995 0.04005160000000002   0.4365     H
H     0.26559999999999995 0.43649899999999997 0.757848     H
H     0.26559999999999995 0.7578469999999999   0.4365     H
H       0.2656 0.43650000000000005 0.0400518     H
H       0.2656 0.757847 0.0400518     H
C     0.266639 0.10164100000000004  0.86508     C
C      0.26664 0.10163999999999998  0.26664     C
C      0.26664  0.26664 0.10163999999999998     C
C      0.26664 0.8650790000000002 0.10163999999999998     C
C      0.26664 0.8650800000000001  0.26664     C
C     0.26664000000000004 0.26664000000000004  0.86508     C
H     0.27025328994556674 0.3829689325719873 0.8025940698313212     H
H     0.27025414908673684 0.8025938166726156 0.0441813004848662     H
H     0.27025500552714216 0.04418053125856103 0.8025934958457956     H
H     0.27025599153060914 0.8025949018251483 0.3829627359978101     H
H     0.2702567461816175 0.38296654432360894 0.044181321265830964     H
H     0.27025720327887237 0.04418375598263952 0.3829635138901322     H
O     0.2721599999999999   0.7896 0.34929999999999994     O
O     0.2721599999999999 0.7896000000000001 0.0889403     O
O     0.27215999999999996 0.349299 0.0889403     O
O     0.27216000000000007 0.0889397 0.34929999999999994     O
O     0.27216000000000007 0.08894039999999998 0.789599     O
O     0.272161 0.34930000000000005 0.789599     O
C       0.2733 0.06605929999999999 0.763619     C
C       0.2733 0.39702000000000004 0.763619     C
C       0.2733 0.7636190000000002 0.0660591     C
C     0.27330000000000004 0.0660599 0.397019     C
C     0.2733000000000001  0.76362 0.397019     C
C     0.2733009999999999 0.397019 0.0660591     C
C     0.2747099999999999  0.05445  0.42213     C
C      0.27471  0.74871  0.42213     C
C     0.274711 0.4221289999999999 0.054449     C
C     0.27471100000000004 0.05444920000000003 0.748709     C
C     0.2747110000000001 0.748709 0.054449     C
C     0.27471100000000015 0.422129 0.748709     C
H     0.27478663394277525 0.9544155984330173 0.7860538329989728     H
H     0.27478666070434815 0.7860539408523772 0.9544162084191073     H
H     0.2747866920114449 0.9544130645966057 0.48474435087274514     H
H     0.2747867563984876 0.48474399245850286 0.954415030558611     H
H     0.2747868692868552 0.4847446022576977 0.7860542282459301     H
H     0.2747878048983579 0.7860539002855387 0.4847449606788539     H
O     0.27489999999999976   0.5346 0.972159     O
O     0.2748999999999998 0.5345990000000002  0.71834     O
O     0.2748999999999998  0.97216  0.71834     O
O     0.27489999999999987  0.71834 0.972159     O
O     0.2749009999999999 0.972159 0.534599     O
O     0.274901 0.7183389999999998 0.534599     O
C     0.2750989999999998   0.6978  0.61632     C
C     0.2750989999999999 0.910779  0.61632     C
C     0.275099  0.91078   0.6978     C
C     0.2750999999999998 0.6163200000000001   0.6978     C
C     0.27509999999999996 0.6977990000000001  0.91078     C
C     0.2751000000000002 0.6163190000000001  0.91078     C
C     0.2785789999999999 0.9379199999999999  0.57186     C
C     0.27857999999999983 0.9379190000000001 0.7116389999999999     C
C     0.27857999999999994 0.5718590000000001 0.7116389999999999     C
C     0.27857999999999994 0.711639  0.57186     C
C      0.27858  0.57186 0.937919     C
C     0.2785800000000001  0.71164 0.937919     C
N     0.2800195003261993 0.844259828029913 1.0222369769133492     N
N     0.28001999972961955 0.844258999909873 0.3534818643087416     N
N     0.28002000604924676 0.02223889701032372 0.8442590020164153     N
N     0.2800201763347425 0.35348041454515566 0.8442587272441552     N
N     0.2800202098227681 1.0222411397714009 0.3534804104782696     N
N     0.28002124957427477 0.35348468506045727 1.0222364683764673     N
O     0.281659 0.027840400000000015   0.4654     O
O     0.28165999999999997 0.46539900000000006 0.725099     O
O     0.28165999999999997   0.4654 0.0278394     O
O      0.28166 0.7250990000000002   0.4654     O
O      0.28166 0.7250990000000003 0.0278394     O
O     0.2816600000000002 0.027839800000000026 0.725099     O
H     0.2818320308315436 0.8249990486553282 1.0304845330549268     H
H     0.28183313733158455 0.03048644148444124 0.8249980670901234     H
H     0.28183314962023753 0.8249980717898786 0.36268244556013274     H
H     0.2818335073005162 0.3626803164893018 0.8249977332425897     H
H     0.2818348363080752 1.0304882247010017 0.3626800066348793     H
H     0.28183603032257853 0.3626852975130975 1.030482383584767     H
H     0.2828749999999999 0.631951 0.685529     H
H     0.282875 0.6855279999999999 0.631951     H
H     0.2828759999999999 0.631951 0.899643     H
H     0.282876 0.8996420000000002 0.685529     H
H     0.282876 0.899643 0.631951     H
H     0.2828760000000001 0.685528 0.899643     H
C     0.283499  0.76578 0.0968201     C
C     0.2834999999999999 0.09682000000000002 0.765779     C
C     0.2834999999999999 0.765779   0.3539     C
C       0.2835 0.0968201   0.3539     C
C       0.2835   0.3539 0.0968201     C
C     0.28350099999999995 0.353899 0.765779     C
O     0.28396999999999994  0.51355 0.0408704     O
O     0.28396999999999994 0.6616090000000001 0.0408704     O
O      0.28397 0.04087039999999997 0.661609     O
O      0.28397  0.51355 0.661609     O
O      0.28397  0.66161  0.51355     O
O     0.2839709999999999 0.04086929999999994  0.51355     O
Cr    0.28409999999999985   0.7159      0.5    Cr
Cr      0.2841 -9.634630000199262e-07   0.7159    Cr
Cr      0.2841 0.715899      0.0    Cr
Cr    0.2841000000000001      0.5      0.0    Cr
Cr    0.28410000000000013 6.477599999998862e-07      0.5    Cr
Cr    0.28410000000000013 0.49999899999999997   0.7159    Cr
H     0.28452299999999986 0.11046600000000001 0.888877     H
H     0.2845229999999999 0.888876 0.110467     H
H     0.284523 0.216132 0.110467     H
H     0.2845230000000001 0.110467 0.216132     H
H     0.2845230000000001 0.216132 0.888877     H
H     0.28452300000000014 0.8888770000000001 0.216132     H
C     0.2853589999999999 0.0849994 0.378861     C
C     0.285359 0.08500089999999993 0.750779     C
C     0.285359  0.75078 0.08499949999999999     C
C     0.28535900000000003 0.7507800000000001 0.378861     C
C      0.28536 0.37885899999999995 0.08499949999999999     C
C     0.2853600000000001 0.37886000000000003 0.750779     C
H     0.285521636096566 0.9783231138236053 0.4553027330762511     H
H     0.28552210735390116 0.780850561847878 0.4553034811047586     H
H     0.28552222998627386 0.45530355244022425 0.7808496233822845     H
H     0.28552275864846227 0.4553028044469393 0.9783248582514874     H
H     0.2855234602964209 0.7808498769850134 0.9783251730313821     H
H     0.2855236949311814 0.9783242800879286 0.7808499586445039     H
O      0.28744 0.325319 0.05646040000000001     O
O     0.28744000000000003 0.0564597  0.32532     O
O     0.28744000000000003 0.056459800000000004 0.830779     O
O     0.28744000000000003 0.32531999999999994 0.830779     O
O     0.28744000000000003 0.830779 0.05646040000000001     O
O     0.28744000000000003 0.830779  0.32532     O
C     0.28835900000000003 0.428141  0.72142     C
C     0.28835999999999995 0.7214190000000001 0.42813899999999994     C
C     0.28835999999999995  0.72142 0.0620793     C
C     0.28836000000000006 0.06207939999999998  0.72142     C
C     0.288361  0.42814 0.0620793     C
C     0.2883610000000001 0.062079400000000035 0.42813899999999994     C
N     0.28917383407117864 0.9596142079946799 0.4678422687432844     N
N     0.28917411560765005 0.4678426596516221 0.7833677553563323     N
N     0.2891742673980927 0.46784216394960587 0.9596158324227342     N
N     0.2891744886193285 0.7833677430199998 0.9596163773549405     N
N     0.2891745645095397 0.9596155588251073 0.7833677334571423     N
N     0.2891746822508249 0.783367708397914 0.46784276446068396     N
C     0.29036899999999993 0.5911500000000001 0.9211889999999999     C
C     0.29036899999999993 0.697289 0.9211889999999999     C
C     0.29036900000000004  0.92119 0.697289     C
C     0.2903699999999999  0.69729 0.591149     C
C     0.2903699999999999 0.9211890000000001 0.591149     C
C     0.2903700000000001 0.5911500000000001 0.697289     C
C     0.2907589999999999 0.9542989999999999 0.547601     C
C     0.29075899999999993 0.5475999999999999  0.70734     C
C     0.29075899999999993 0.707339 0.547601     C
C     0.29075899999999993 0.9542999999999999  0.70734     C
C     0.29075900000000005 0.7073400000000001 0.954299     C
C     0.29075999999999985 0.5475999999999999 0.954299     C
O     0.2915689999999999 0.255511 0.856229     O
O     0.29156899999999997  0.25551 0.0966895     O
O     0.2915699999999999 0.856229 0.255509     O
O     0.29156999999999994 0.09668939999999993 0.856229     O
O      0.29157 0.0966904 0.255509     O
O      0.29157 0.856229 0.0966895     O
O     0.2923189999999999 0.7552000000000001 0.33722099999999994     O
O     0.29231899999999994 0.11526000000000003 0.755199     O
O     0.292319 0.11525900000000003 0.33722099999999994     O
O     0.29231900000000005 0.33721999999999996 0.11525999999999999     O
O     0.29231999999999997 0.3372199999999999 0.755199     O
O     0.29231999999999997 0.7551990000000001 0.11525999999999999     O
C     0.2926599999999999 0.045700399999999974  0.70924     C
C     0.29266000000000003   0.4524  0.70924     C
C     0.29266000000000003  0.70924   0.0457     C
C     0.29266000000000003  0.70924   0.4524     C
C     0.2926600000000001 0.04569969999999998   0.4524     C
C     0.29266000000000014 0.452399   0.0457     C
F     0.29357900000000003 0.293579 0.16856099999999996     F
F     0.29358000000000006 0.168561 0.7442789999999999     F
F     0.29358000000000006 0.744279 0.16856099999999996     F
O      0.29603 0.10404999999999998 0.803889     O
O      0.29603  0.10405 0.296031     O
O      0.29603 0.296029 0.104051     O
O      0.29603 0.803889 0.296031     O
O     0.29603000000000007 0.803889 0.104051     O
O     0.2960300000000001 0.296029 0.803889     O
O     0.29929899999999987 0.7457600000000001 0.969719     O
O     0.2992989999999999 0.9697200000000001 0.745761     O
O     0.2992999999999999  0.74576 0.48521899999999996     O
O     0.2992999999999999  0.96972 0.48521899999999996     O
O     0.29930000000000007 0.485219 0.745761     O
O     0.2993000000000001 0.48521900000000007 0.969719     O
Cr    0.29931800000000003 0.13332099999999997  0.29932    Cr
Cr    0.29931900000000006 0.29931899999999995 0.133321    Cr
Cr    0.2993190000000001 0.29932100000000006 0.768039    Cr
Cr     0.29932 0.768039 0.133321    Cr
Cr    0.29932000000000003  0.13332 0.768039    Cr
Cr    0.29932000000000003 0.768039  0.29932    Cr
H     0.2997206279112287 0.25002545534043036 0.7536625721533311     H
H     0.2997207130987335 0.7536631482968337 0.25002609603196196     H
H     0.29972561241988616 0.19658810186139652 0.25002573297998265     H
C     0.30197899999999994 0.007440769999999999    0.339     C
C      0.30198 0.851579    0.339     C
C     0.3019800000000001 0.00743989000000006 0.851579     C
C     0.3019800000000001 0.33900000000000013 0.851579     C
C     0.3019800000000001 0.339001 0.0074393     C
C     0.30198000000000014 0.8515789999999999 0.0074393     C
C     0.302199 0.724899 0.38368099999999994     C
C     0.30219999999999997 0.08921950000000001 0.38368099999999994     C
C       0.3022 0.08921890000000002   0.7249     C
C       0.3022 0.383679   0.7249     C
C       0.3022 0.7249000000000001 0.089219     C
C     0.3022000000000001  0.38368 0.089219     C
H     0.3023809999999999 0.8588880000000001 0.369369     H
H     0.30238099999999996 0.9693609999999999 0.369369     H
H     0.30238100000000007 0.369369 0.969361     H
H     0.3023819999999999 0.8588880000000001 0.969361     H
H     0.3023820000000001 0.369369 0.858888     H
H     0.3023820000000001  0.96936 0.858888     H
C     0.30270899999999995  0.40885  0.70963     C
C     0.302709 0.7096300000000001 0.40884999999999994     C
C     0.30270999999999987 0.709631 0.0788095     C
C     0.3027099999999999 0.4088490000000001 0.0788095     C
C      0.30271 0.07880949999999998  0.70963     C
C     0.30271000000000003 0.07881030000000003 0.40884999999999994     C
O     0.30365999999999993 0.0507802   0.4625     O
O     0.30365999999999993 0.46250000000000013 0.683059     O
O     0.30366099999999996 0.050779800000000014 0.683059     O
O     0.303661 0.462499 0.05077899999999999     O
O     0.303661  0.68306 0.05077899999999999     O
O     0.30366100000000007 0.683059   0.4625     O
C     0.30529899999999993 0.305299 0.047900399999999996     C
C     0.305299 0.04790000000000001   0.3053     C
C       0.3053 0.04789960000000004 0.841499     C
C       0.3053 0.30530100000000004 0.841499     C
C       0.3053 0.841499 0.047900399999999996     C
C     0.3053000000000002 0.8414990000000001   0.3053     C
O     0.305649 0.259089 0.150451     O
O     0.305649  0.78481 0.150451     O
O      0.30565  0.15045 0.259089     O
O      0.30565 0.15045000000000003 0.784809     O
O     0.3056500000000001 0.7848110000000001 0.259089     O
O     0.305651 0.25909000000000004 0.784809     O
H     0.30606699999999987 0.44481100000000007 0.824999     H
H     0.30606699999999987 0.924121 0.824999     H
H     0.3060669999999999 0.824997 0.924123     H
H     0.306068 0.824998 0.444811     H
H     0.306068 0.924122 0.444811     H
H     0.30606800000000006 0.4448110000000001 0.924123     H
C     0.31040899999999993 0.17079000000000005 0.8043099999999999     C
C     0.31040900000000005  0.17079 0.21449099999999996     C
C     0.3104090000000001 0.8043100000000001  0.17079     C
C     0.31040999999999985 0.8043090000000002 0.21449099999999996     C
C     0.31040999999999996 0.21449000000000001 0.8043099999999999     C
C      0.31041 0.214489  0.17079     C
H     0.3104475367496883 1.0544215612278456 0.5408577567766452     H
H     0.3104490979861153 0.5408559864841317 0.594269414716185     H
H     0.31045100508822837 0.5408551681274205 1.0544239325612468     H
H     0.3106929999999999 0.686108 0.586789     H
H     0.310693 0.586788 0.6861099999999999     H
H     0.310693 0.586788 0.916408     H
H     0.310693 0.9164069999999999 0.586789     H
H     0.3106939999999999 0.9164070000000001 0.6861099999999999     H
H     0.31069400000000014 0.6861079999999999 0.916408     H
C     0.31102899999999994  0.80369  0.23697     C
C     0.31102900000000006 0.23696900000000004  0.80369     C
C     0.31102999999999986 0.23696900000000004 0.148311     C
C      0.31103 0.14831099999999997  0.80369     C
C     0.31103000000000003  0.14831  0.23697     C
C     0.31103099999999995 0.8036889999999999 0.148311     C
C     0.31274899999999983 0.3127510000000001 0.854109     C
C     0.3127499999999999 0.31274900000000005 0.020390399999999996     C
C     0.3127499999999999 0.854109 0.31274899999999994     C
C      0.31275 0.020389800000000013 0.31274899999999994     C
C      0.31275 0.02039089999999999 0.854109     C
C      0.31275 0.854109 0.020390399999999996     C
C     0.3131989999999999 0.21434000000000003  0.78062     C
C     0.31319899999999995  0.78062  0.21434     C
C     0.3131999999999999  0.19184  0.78062     C
C       0.3132 0.19184000000000007  0.21434     C
C     0.31320000000000003  0.21434 0.191839     C
C     0.31320000000000003  0.78062 0.191839     C
C     0.31328900000000015 0.35068999999999995  0.97961     C
C     0.31328900000000015 0.979609  0.35069     C
C     0.31328999999999996 0.8564080000000001  0.97961     C
C      0.31329 0.979609 0.856409     C
C     0.31329000000000007 0.856409  0.35069     C
C     0.3132900000000001  0.35069 0.856409     C
C     0.3135799999999999 0.46193999999999996 0.9413399999999998     C
C     0.3135799999999999 0.7831400000000002 0.9413399999999998     C
C     0.31357999999999997 0.46194000000000013 0.7831399999999998     C
C     0.3135800000000001 0.9413389999999999  0.46194     C
C     0.3135800000000001 0.9413390000000001 0.7831399999999998     C
C     0.313581 0.783139  0.46194     C
H     0.31388900000000003 0.08359230000000001 0.689306     H
H     0.31389000000000006 0.6893049999999998 0.0835923     H
H     0.31389099999999986 0.41321100000000005 0.0835923     H
H     0.3138909999999999 0.08359109999999997 0.413212     H
H     0.313891 0.41321199999999997 0.689306     H
H     0.313891 0.689305 0.413212     H
H     0.31446999999999986 0.368048 0.717124     H
H     0.3144699999999999 0.100357 0.368048     H
H     0.3144699999999999 0.717125 0.368048     H
H      0.31447 0.36804800000000004 0.100356     H
H     0.31447099999999995 0.717125 0.100356     H
H     0.314471 0.10035599999999995 0.717124     H
H     0.31523099999999993 0.23093900000000003 0.190459     H
H     0.315231 0.19045999999999996  0.76337     H
H     0.31523200000000007 0.7633699999999999 0.190459     H
N     0.31584528171499104 0.23555391546988985 0.7581341987703942     N
N     0.3158453366910161 0.7581346808201289 0.23555435618515397     N
N     0.3158490427265307 0.19046375064368715 0.2355532228369626     N
O     0.316229 6.477599999998862e-07      0.5     O
O     0.316229 0.500001 0.6837689999999998     O
O     0.31622900000000004      0.5      0.0     O
O     0.31622999999999996  0.68377      0.0     O
O     0.31623000000000007 0.6837690000000001      0.5     O
O     0.31623100000000004 2.882550000082862e-07 0.6837689999999998     O
O     0.31693899999999997   0.5375  0.94922     O
O     0.31693899999999997  0.69634 0.537499     O
O     0.3169390000000001 0.5374999999999999  0.69634     O
O      0.31694 0.949219 0.537499     O
O     0.3169409999999997 0.949219  0.69634     O
O     0.3169409999999999 0.696339  0.94922     O
C     0.32002899999999995 0.822789 0.167331     C
C     0.3200299999999999  0.16733 0.189849     C
C     0.3200299999999999 0.16733000000000003 0.822789     C
C     0.3200299999999999 0.18985100000000005 0.822789     C
C     0.3200299999999999 0.822789 0.189849     C
C      0.32003 0.189849 0.167331     C
Cr    0.320349 0.03562980000000002 0.6538299999999999    Cr
Cr    0.3203490000000002  0.65383 0.0356295    Cr
Cr     0.32035 0.03562989999999999 0.490189    Cr
Cr     0.32035  0.49019 0.6538299999999999    Cr
Cr    0.32035099999999994 0.49018900000000004 0.0356295    Cr
Cr    0.32035100000000005 0.6538289999999999 0.490189    Cr
C     0.320789  0.44757  0.80621     C
C     0.3207890000000001 0.8062099999999999  0.92543     C
C     0.3207899999999999 0.4475699999999999  0.92543     C
C     0.3207900000000001 0.806208 0.447571     C
C     0.3207900000000001 0.9254290000000001 0.447571     C
C     0.32079000000000013 0.9254279999999998  0.80621     C
Cr    0.32187899999999997 0.09320029999999999   0.2612    Cr
Cr    0.32187899999999997 0.26119999999999993  0.82372    Cr
Cr    0.3218790000000001 0.261199 0.0932008    Cr
Cr     0.32188 0.09320040000000002  0.82372    Cr
Cr    0.32188000000000005  0.82372 0.0932008    Cr
Cr    0.3218800000000001 0.8237189999999999   0.2612    Cr
C     0.32264899999999996 0.48392900000000005  0.73919     C
C     0.32264899999999996 0.9542290000000001  0.73919     C
C     0.3226499999999999 0.7391889999999999 0.954229     C
C     0.32264999999999994 0.739189 0.483929     C
C     0.32265100000000013 0.48392899999999994 0.954229     C
C     0.32265100000000013 0.954229 0.483929     C
O     0.32529899999999984 0.23225999999999997 0.816059     O
O     0.32529900000000006  0.81606 0.232259     O
O     0.3252999999999999  0.23226  0.12638     O
O     0.3252999999999999 0.816059  0.12638     O
O       0.3253  0.12638 0.816059     O
O     0.325301  0.12638 0.232259     O
O     0.32531999999999994 0.056461 0.287439     O
O      0.32532 0.287441 0.05646040000000001     O
O     0.32532000000000005 0.056459800000000004 0.830779     O
O     0.32532000000000005 0.28744100000000006 0.830779     O
O     0.32532000000000005 0.830779 0.05646040000000001     O
O     0.32532000000000005  0.83078 0.287439     O
H     0.32681199999999994 0.835818 0.18909299999999998     H
H     0.326812 0.14827600000000002 0.835818     H
H     0.326812 0.189095 0.835818     H
H     0.326812 0.835818 0.148275     H
H     0.32681299999999996 0.14827500000000002 0.18909299999999998     H
H     0.32681299999999996 0.189093 0.148275     H
F     0.328039  0.62144 0.48356099999999996     F
O     0.329039 0.522179 0.0169406     O
O     0.3290390000000001 0.01694000000000001  0.52218     O
O     0.32903999999999994 0.631839 0.0169406     O
O      0.32904 0.016940599999999972  0.63184     O
O      0.32904  0.52218  0.63184     O
O     0.32904100000000003 0.631839  0.52218     O
N     0.32926456771746826 1.0443776136797616 0.5405634506899615     N
N     0.3292658140980413 0.5405625750787224 0.5857908695751572     N
N     0.3292675971875574 0.5405620611251459 1.0443786027780007     N
H     0.3306109999999999 0.03902859999999997 0.585493     H
H     0.3306109999999999 0.5854939999999998 0.544866     H
H     0.330611 0.5854930000000002 0.0390286     H
C     0.33208899999999997 0.4700900000000001  0.75983     C
C     0.3320899999999999 0.4700899999999999  0.93799     C
C     0.3320899999999999 0.7598299999999999  0.93799     C
C      0.33209 0.7598290000000001 0.470089     C
C      0.33209 0.9379890000000001  0.75983     C
C      0.33209 0.9379900000000001 0.470089     C
H     0.33392588287331204 0.23676222616405068 0.745985885348183     H
H     0.33392594827231087 0.7459866296017801 0.2367627926491122     H
H     0.3339304611353935 0.18332217164087694 0.2367600513125669     H
O     0.3348279999999999  0.92405 0.368391     O
O     0.334828 0.3683900000000001  0.92405     O
O     0.3348299999999999 0.36838999999999994 0.8727299999999999     O
O     0.33482999999999996 0.872729  0.92405     O
O      0.33483  0.87273 0.368391     O
O     0.3348309999999998 0.9240490000000001 0.8727299999999999     O
C     0.33507899999999985 0.021239500000000022   0.5603     C
C     0.33507899999999996  0.58338   0.5603     C
C     0.33507900000000007 0.5602990000000001  0.58338     C
C     0.3350799999999999  0.58338 0.0212401     C
C      0.33508 0.02124000000000001  0.58338     C
C      0.33508 0.5602990000000001 0.0212401     C
Cr      0.3364 0.8861780000000001 0.391241    Cr
Cr    0.33640000000000003 0.3912389999999999 0.8861800000000001    Cr
Cr    0.33640000000000014 0.886179 0.8861800000000001    Cr
O     0.33645899999999995  0.84968   0.4177     O
O     0.33645900000000006 0.8961600000000001   0.4177     O
O     0.33645999999999987 0.41770000000000007 0.849679     O
O     0.33646000000000004 0.417699  0.89616     O
O     0.33646000000000004 0.8496799999999998  0.89616     O
O     0.3364600000000001 0.8961600000000001 0.849679     O
O      0.33722 0.2923200000000001 0.11525999999999999     O
O      0.33722 0.2923200000000001 0.755199     O
O      0.33722 0.755201  0.29232     O
O     0.3372200000000001 0.115259  0.29232     O
O     0.33722099999999994 0.11526000000000003 0.755199     O
O     0.33722099999999994 0.7551990000000001 0.11525999999999999     O
C     0.33815899999999977 0.9657600000000001  0.33816     C
C     0.33815899999999993  0.85792 0.965759     C
C     0.3381590000000001  0.96576 0.857919     C
C      0.33816  0.33816 0.857919     C
C      0.33816 0.857919  0.33816     C
C     0.33816000000000007 0.3381609999999999 0.965759     C
O     0.33838899999999994 0.48645000000000016 0.9591299999999999     O
O     0.33838899999999994 0.4864510000000001 0.716029     O
O     0.33838899999999994 0.716031 0.486449     O
O     0.3383900000000001 0.7160290000000001 0.9591299999999999     O
O     0.3383900000000002 0.9591299999999999 0.486449     O
O     0.338391 0.959129 0.716029     O
H     0.33855999999999997 0.582106 0.957807     H
H     0.33855999999999997 0.957807 0.582108     H
H      0.33856 0.5821080000000001 0.621524     H
H      0.33856 0.9578069999999999 0.621524     H
H     0.3385600000000001 0.6215230000000002 0.582108     H
H     0.3385600000000001 0.6215249999999999 0.957807     H
C     0.338999 0.8515799999999999 0.301981     C
C        0.339 0.007439650000000006 0.301981     C
C     0.3390000000000001  0.30198 0.0074393     C
C     0.33900000000000013 0.3019810000000001 0.851579     C
C     0.33900100000000005 0.00743989000000006 0.851579     C
C     0.3390010000000001 0.8515789999999999 0.0074393     C
C     0.33973999999999993 0.5815999999999999 0.974459     C
C     0.33973999999999993  0.97446 0.581599     C
C      0.33974 0.9744600000000001 0.604199     C
C     0.3397400000000001 0.5816000000000001 0.604199     C
C     0.33974000000000015 0.604199 0.974459     C
C     0.33974099999999996   0.6042 0.581599     C
C     0.3412989999999999 0.6038799999999999  0.55834     C
C     0.3412989999999999 0.603881 0.996479     C
C     0.3412989999999999 0.9964790000000001  0.60388     C
C     0.3412999999999998 0.9964790000000001  0.55834     C
C     0.34129999999999994 0.558339  0.60388     C
C     0.34130000000000005 0.558339 0.996479     C
C     0.34303899999999976 0.9965200000000001 0.534359     C
C     0.343039 0.6260800000000001 0.534359     C
C     0.34303999999999985 0.626079  0.99652     C
C      0.34304 0.534359 0.6260789999999999     C
C     0.34304000000000007 0.534359  0.99652     C
C     0.34304099999999993 0.9965190000000002 0.6260789999999999     C
H     0.3437839748242473 1.051435750155849 0.525681260330641     H
H     0.3437858275867805 0.525681371340194 0.5790942715114198     H
H     0.34378806546899393 0.5256807819110223 1.0514356446132773     H
F      0.34455 0.0779908  0.23371     F
Cr    0.3461690000000001 0.6796499999999999  0.50981    Cr
Cr    0.34617000000000003 0.5098099999999999 0.679649    Cr
Cr    0.34617000000000003 0.5098100000000001 0.964369    Cr
Cr    0.34617000000000003  0.96437 0.679649    Cr
Cr    0.34617000000000014 0.964369  0.50981    Cr
Cr    0.34617099999999995 0.6796490000000002 0.964369    Cr
C     0.34638899999999984  0.87013 0.937089     C
C     0.3463899999999998 0.34639000000000003  0.87013     C
C     0.34638999999999986 0.346391 0.937089     C
C     0.3463899999999999 0.9370889999999998  0.87013     C
C      0.34639 0.8701290000000002 0.34639099999999995     C
C     0.34639000000000003 0.9370889999999998 0.34639099999999995     C
C     0.3476989999999998 0.9112990000000001  0.80408     C
C     0.34769900000000004 0.804079   0.9113     C
C       0.3477 0.911299 0.43691899999999995     C
C     0.3477000000000002 0.436919   0.9113     C
C     0.347701 0.4369190000000001  0.80408     C
C     0.34770100000000004 0.804079 0.43691899999999995     C
O     0.3491890000000002 0.6446500000000001  0.53087     O
O     0.34918999999999994  0.53087 0.975289     O
O      0.34919  0.53087 0.644649     O
O      0.34919 0.9752889999999999  0.53087     O
O     0.34919099999999986  0.64465 0.975289     O
O     0.34919100000000003 0.975289 0.644649     O
O     0.34929899999999997 0.7896000000000001 0.0889403     O
O     0.34929900000000014 0.08894039999999998 0.789599     O
O     0.34929999999999994 0.0889408 0.272159     O
O     0.34929999999999994 0.27216000000000007 0.789599     O
O       0.3493  0.27216 0.0889403     O
O       0.3493 0.789599 0.272159     O
H     0.35060899999999995 0.018508499999999928 0.845925     H
H     0.35060899999999995 0.845925 0.0185076     H
H     0.35060900000000006 0.845926 0.284956     H
H     0.35060999999999987 0.284956 0.845925     H
H     0.3506099999999999 0.0185076 0.284956     H
H     0.3506099999999999 0.28495600000000004 0.0185076     H
C     0.3506879999999999 0.31329000000000007  0.97961     C
C     0.35068799999999994 0.9796099999999999 0.313291     C
C     0.3506889999999999 0.8564080000000001  0.97961     C
C     0.35068900000000003 0.856409 0.313291     C
C     0.3506899999999999 0.31329100000000015 0.856409     C
C     0.3506899999999999 0.979609 0.856409     C
H     0.35331266092853675 0.3364359139555472 0.7158017723052503     H
H     0.3533161585924657 0.7157953001546732 0.33643627545678173     H
H     0.35331637743179195 0.09444033712350741 0.7158018841381669     H
H     0.35331744482075367 0.715798651943178 0.09444288827174546     H
H     0.35331749779787736 0.33644135720458523 0.09444193139556861     H
H     0.3533176390844413 0.0944455167902919 0.3364379491718946     H
C     0.35349900000000006   0.4259  0.82792     C
C     0.35349900000000006  0.82792 0.892679     C
C     0.35349900000000006 0.892679  0.82792     C
C     0.35349999999999987 0.4259009999999999 0.892679     C
C     0.3534999999999999 0.827919   0.4259     C
C     0.3534999999999999 0.8926789999999999   0.4259     C
C     0.3538990000000001 0.765779   0.2835     C
C     0.3538999999999998 0.28350000000000003 0.765779     C
C       0.3539 0.0968196   0.2835     C
C       0.3539   0.2835 0.0968201     C
C     0.35390000000000005  0.76578 0.0968201     C
C     0.3539010000000001 0.09682000000000002 0.765779     C
O     0.35534999999999983 0.650809 0.46912999999999994     O
O     0.35534999999999983 0.6508090000000001 0.0247093     O
O     0.35534999999999994 0.024709399999999992 0.650809     O
O     0.35535000000000005 0.024709800000000004 0.46912999999999994     O
O     0.35535000000000005 0.4691299999999998 0.650809     O
O     0.355351 0.46912899999999996 0.0247093     O
H     0.35949985511012494 0.31172551016024963 0.7055650005256344     H
H     0.35949995048020444 0.12320297192317922 0.7055630388504516     H
H     0.35950159986548325 0.3117327320810177 0.12320387500653077     H
H     0.3595023471690276 0.7055613192005441 0.1232043457437583     H
H     0.3595035364061783 0.12320614231512522 0.3117278093472564     H
H     0.35950472413159007 0.7055605595665755 0.3117238114704196     H
C     0.35958899999999994 0.4563289999999999  0.92735     C
C     0.35958899999999994  0.75673 0.456329     C
C     0.3595890000000001 0.45632999999999996 0.756729     C
C     0.3595900000000001 0.7567300000000001  0.92735     C
C     0.3595900000000001  0.92735 0.456329     C
C     0.35959099999999994 0.9273490000000002 0.756729     C
H     0.35997039862144464 0.6795244254715078 0.4123225232026957     H
H     0.3599712611937941 0.048181337553544895 0.4123228199523809     H
H     0.35997167742579955 0.6795280540729303 0.04818025765674345     H
H     0.35997238084634137 0.4123203233937466 0.048180767670398986     H
H     0.3599727731883491 0.41231654311110244 0.6795256688837995     H
H     0.359972950763703 1.048181257612077 0.679525901816741     H
N     0.3637655693474482 0.31817612308989385 0.7145196154779423     N
N     0.3637672308250145 0.10353202235037764 0.7145189401387019     N
N     0.3637682420040839 0.3181812865645851 0.10353296106743308     N
N     0.36376849548833295 0.7145171323223114 0.10353348225962827     N
N     0.3637688936929091 0.7145153614855351 0.31817563490993067     N
N     0.3637692704172105 0.10353525967340624 0.31817770549111857     N
C     0.36720899999999995 0.7789890000000002  0.91045     C
C     0.36720900000000006 0.4433500000000001  0.91045     C
C     0.3672099999999998 0.9104490000000001 0.443349     C
C     0.3672099999999999 0.7789910000000001 0.443349     C
C     0.3672100000000001 0.9104490000000001 0.778989     C
C     0.367211 0.44334900000000005 0.778989     C
O     0.36815900000000007  0.67096  0.98306     O
O     0.3681590000000001 0.670961 0.477819     O
O     0.3681599999999997 0.9830580000000001 0.6709600000000001     O
O     0.36815999999999993 0.4778190000000001 0.6709600000000001     O
O      0.36816 0.47781899999999994  0.98306     O
O     0.36816100000000007 0.9830590000000001 0.477819     O
O     0.3683890000000001 0.8727299999999999 0.33482900000000004     O
O     0.3683899999999999 0.33482900000000004  0.92405     O
O     0.3683899999999999 0.9240499999999999 0.33482900000000004     O
O     0.36838999999999994 0.3348289999999999 0.8727299999999999     O
O     0.36838999999999994 0.9240490000000001 0.8727299999999999     O
O      0.36839 0.872729  0.92405     O
H     0.369368 0.302382 0.858888     H
H     0.369368 0.302382 0.969361     H
H     0.369368 0.9693610000000001  0.30238     H
H     0.3693689999999998 0.8588880000000001 0.969361     H
H     0.369369  0.96936 0.858888     H
H     0.36936900000000006 0.8588880000000001  0.30238     H
H     0.3703665845214315 0.6451686202797778 0.06174987725863235     H
H     0.37036665226534726 0.6451648041165117 0.42271891713774173     H
H     0.3703677843637504 0.42271572691115605 0.06174946017830015     H
H     0.37036791340446445 0.061748490045655 0.42271862393932386     H
H     0.3703684811897071 0.42271225111246025 0.6451661290271054     H
H     0.37036849992138576 1.0617496781236753 0.6451663829897764     H
N     0.37343389159359086 0.6617820996908643 0.41775798615603277     N
N     0.3734343337267668 0.6617850874620999 0.04702486195323243     N
N     0.3734349367580944 0.047024776742564944 0.4177579874525271     N
N     0.3734352984100335 0.4177560183652819 0.04702489588127113     N
N     0.3734354262015124 0.4177530994784433 0.6617830373325526     N
N     0.3734357677104292 1.0470250733638458 0.6617832150880936     N
H      0.37363 0.7378280000000002 0.45617099999999994     H
H     0.37363099999999994 0.456171 0.737828     H
H     0.37363099999999994 0.932368 0.737828     H
H     0.373631 0.737827 0.932369     H
H     0.37363100000000005 0.9323690000000001 0.45617099999999994     H
H     0.3736310000000001 0.4561720000000002 0.932369     H
O     0.3736689999999998  0.87633 0.373671     O
O     0.37366900000000003  0.87633 0.876329     O
O     0.37366999999999995 0.373671 0.876329     O
C     0.3739189999999999 0.46563999999999994 0.0034809     C
C     0.37391999999999986 0.003479359999999987  0.46564     C
C     0.3739199999999999 0.656959 0.0034809     C
C     0.37392000000000003 0.003478960000000003 0.656961     C
C     0.37392000000000003 0.4656389999999999 0.656961     C
C     0.3739200000000001 0.6569589999999998  0.46564     C
O     0.37615999999999994  0.82762 0.421339     O
O      0.37616  0.42134 0.874879     O
O     0.3761600000000001 0.4213399999999999  0.82762     O
O     0.3761600000000002 0.8748799999999999  0.82762     O
O     0.37616000000000027  0.87488 0.421339     O
O     0.3761609999999999 0.8276190000000001 0.874879     O
F     0.3785600000000001 0.5164400000000001  0.67196     F
C     0.3788599999999998  0.28536 0.08499949999999999     C
C     0.3788599999999999 0.08499999999999998  0.28536     C
C     0.3788599999999999  0.75078 0.08499949999999999     C
C      0.37886 0.7507800000000001  0.28536     C
C     0.37886000000000003 0.08500089999999993 0.750779     C
C     0.37886099999999995 0.285359 0.750779     C
C     0.383679 0.302199   0.7249     C
C     0.38367999999999997 0.724899 0.302199     C
C      0.38368 0.08921890000000002   0.7249     C
C      0.38368 0.302201 0.089219     C
C      0.38368 0.7249000000000001 0.089219     C
C     0.383681 0.08921959999999998 0.302199     C
H     0.386885 0.43862000000000007 0.897597     H
H     0.38688599999999984 0.8975980000000002 0.438619     H
H     0.38688599999999995 0.438619 0.7768959999999999     H
H     0.38688600000000006 0.8975989999999999 0.7768959999999999     H
H     0.3868860000000002 0.776896 0.438619     H
H     0.3868869999999999 0.7768960000000003 0.897597     H
Cr    0.3912389999999999 0.33640000000000003 0.8861800000000001    Cr
Cr    0.39123899999999995 0.886179   0.3364    Cr
Cr    0.3912399999999997 0.886179 0.8861800000000001    Cr
H     0.3914639999999999 0.784211 0.263414     H
H     0.3914649999999999 0.26341300000000006  0.78421     H
H     0.39146499999999995 0.06091010000000001 0.263414     H
H     0.39146499999999995 0.263415 0.0609099     H
H     0.3914659999999999 0.060909999999999964  0.78421     H
H     0.3914659999999999  0.78421 0.0609099     H
F     0.3928889999999998 0.29973000000000005 0.903689     F
F     0.3928899999999999 0.9036889999999999  0.29973     F
Cr    0.3957889999999999 0.39579000000000003  0.85421    Cr
Cr    0.3957890000000001 0.854209  0.85421    Cr
Cr     0.39579 0.8542089999999999 0.3957899999999999    Cr
C     0.395799 0.660261 0.0255396     C
C     0.39579900000000007 0.6602599999999998   0.4184     C
C     0.3957990000000001 0.41839899999999997  0.66026     C
C     0.3957999999999999 0.0255397   0.4184     C
C       0.3958 0.41840000000000005 0.0255396     C
C     0.39580000000000004 0.025539300000000015  0.66026     C
C     0.3961189999999999 0.0035205499999999834 0.658699     C
C     0.3961189999999999 0.658699 0.0035198799999999995     C
C     0.3961199999999999 0.44166099999999997 0.658699     C
C     0.396121 0.003520000000000023 0.441659     C
C     0.396121  0.44166 0.0035198799999999995     C
C     0.396121 0.6586999999999998 0.441659     C
C     0.3970199999999998 0.27329900000000007 0.763619     C
C     0.39702000000000004 0.7636189999999999 0.273299     C
C     0.39702099999999996 0.06605929999999999 0.763619     C
C     0.39702099999999996 0.06606030000000002 0.273299     C
C     0.39702099999999996 0.7636190000000002 0.0660591     C
C     0.39702100000000007   0.2733 0.0660591     C
C     0.40884899999999996  0.30271  0.70963     C
C     0.40884899999999996 0.709631 0.0788095     C
C     0.408849 0.07881059999999998  0.30271     C
C     0.408849 0.7096299999999999  0.30271     C
C     0.4088499999999999 0.07880949999999998  0.70963     C
C     0.40884999999999994 0.30271000000000003 0.0788095     C
H     0.41321000000000013 0.08359230000000001 0.689306     H
H     0.41321099999999983 0.31389000000000006 0.0835923     H
H     0.41321099999999983 0.31389000000000006 0.689306     H
H     0.4132109999999999 0.689305 0.313891     H
H     0.413211 0.08359129999999998 0.313891     H
H     0.41321100000000005 0.6893049999999998 0.0835923     H
H     0.41450499999999985 0.9609710000000002 0.669389     H
H     0.41450499999999996 0.45513299999999995 0.669389     H
H     0.4145059999999998 0.669388 0.455133     H
H     0.41450599999999993 0.455133  0.96097     H
H     0.41450599999999993 0.669389  0.96097     H
H     0.41450599999999993 0.9609710000000001 0.455133     H
C     0.41661899999999985 0.43969900000000006  0.66492     C
C     0.4166199999999999 0.9787600000000001  0.66492     C
C     0.41661999999999993 0.6649180000000001   0.4397     C
C     0.41661999999999993 0.6649210000000001 0.978759     C
C     0.41661999999999993 0.9787590000000002   0.4397     C
C     0.41662099999999996 0.43970000000000004 0.978759     C
F     0.4176290000000001  0.83237  0.83237     F
O     0.4176999999999998 0.3364599999999999  0.89616     O
O     0.41769999999999985 0.8961600000000001 0.849679     O
O     0.41769999999999996  0.84968  0.33646     O
O       0.4177 0.8496799999999998  0.89616     O
O     0.4177009999999999  0.33646 0.849679     O
O     0.4177010000000001 0.8961589999999999  0.33646     O
H     0.41789299999999996 0.042191099999999954 0.6614390000000001     H
H     0.41789299999999996 0.378476 0.0421918     H
H     0.417893 0.661439 0.0421918     H
H     0.41789300000000007 0.04219229999999999 0.378475     H
H     0.41789300000000007 0.3784749999999999 0.6614390000000001     H
H     0.41789300000000007 0.6614389999999999 0.378475     H
C     0.418399 0.6602600000000001 0.39579899999999996     C
C     0.4183990000000001 0.395799  0.66026     C
C       0.4184 0.025539300000000015  0.66026     C
C       0.4184 0.660261 0.0255396     C
C     0.4184000000000001 0.39580000000000004 0.0255396     C
C     0.41840099999999997 0.025539299999999987 0.39579899999999996     C
H     0.4197788185764005 0.4061144107032128 0.8998144008554612     H
H     0.419780413183048 0.7742859247224605 0.8998154224263731     H
H     0.41978048841448806 0.8998127893669277 0.406116050027502     H
H     0.41978237591489276 0.8998134612574051 0.7742856374351856     H
H     0.4197837650084119 0.7742875419698723 0.40611677958792014     H
H     0.419787385818874 0.4061175977987376 0.7742854194264193     H
O     0.42133899999999974 0.3761600000000001  0.82762     O
O     0.4213389999999999  0.82762 0.37615899999999997     O
O     0.4213390000000001 0.3761609999999999 0.874879     O
O     0.4213390000000001 0.8748799999999999  0.82762     O
O      0.42134 0.8276190000000001 0.874879     O
O     0.42134000000000005 0.874879 0.37615899999999997     O
C     0.4221299999999999 0.054448999999999984  0.27471     C
C      0.42213 0.05444920000000003 0.748709     C
C      0.42213 0.748709  0.27471     C
C     0.42213000000000006 0.748709 0.054449     C
C     0.4221300000000001  0.27471 0.748709     C
C     0.4221310000000001  0.27471 0.054449     C
C     0.4258989999999998  0.89268   0.3535     C
C     0.42589899999999986  0.82792 0.892679     C
C     0.42589899999999986 0.892679  0.82792     C
C     0.425899  0.82792   0.3535     C
C     0.4258990000000001 0.35349900000000006  0.82792     C
C     0.4259000000000001   0.3535 0.892679     C
C     0.42813999999999997 0.288361 0.0620793     C
C     0.42813999999999997  0.72142 0.0620793     C
C      0.42814 0.06208029999999999 0.288359     C
C      0.42814  0.72142 0.288359     C
C     0.4281400000000001 0.06207939999999998  0.72142     C
C     0.4281400000000001 0.28836000000000006  0.72142     C
H     0.43649999999999994 0.7578490000000001 0.265599     H
H       0.4365 0.040052499999999935 0.757848     H
H       0.4365 0.26559999999999995 0.757848     H
H     0.436501 0.04005170000000001 0.265599     H
H     0.436501 0.757847 0.0400518     H
H     0.43650100000000003 0.265599 0.0400518     H
C     0.4369189999999999 0.34769900000000004  0.80408     C
C     0.43691899999999995  0.80408 0.34769999999999995     C
C     0.43691900000000017 0.9112999999999999 0.34769999999999995     C
C     0.43692000000000003 0.3476989999999999   0.9113     C
C     0.43692000000000003 0.804079   0.9113     C
C     0.43692000000000003 0.9112990000000001  0.80408     C
N     0.43721933657007017 0.3925902223525629 0.8938441505065244     N
N     0.4372205009912612 0.8938428351543097 0.39259120998413816     N
N     0.4372205846281334 0.7763406190020226 0.8938449972751299     N
N     0.43722233285320633 0.8938434897930375 0.7763405380622024     N
N     0.43722341358953876 0.7763425363350738 0.39259103770075193     N
N     0.4372265756094195 0.39259076715522206 0.7763407266763811     N
C     0.43969899999999973 0.9787600000000001  0.66492     C
C     0.43969899999999984 0.978759 0.41662099999999996     C
C     0.43969900000000006 0.4166199999999999  0.66492     C
C     0.4396990000000002  0.66492 0.41662099999999996     C
C     0.43970000000000004 0.416619 0.978759     C
C     0.43970000000000015 0.6649210000000001 0.978759     C
C     0.44165899999999997  0.39612 0.0035198799999999995     C
C     0.44165999999999983 0.396119 0.658699     C
C     0.44165999999999994 0.0035205499999999834 0.658699     C
C     0.44166000000000005 0.003520240000000008 0.396119     C
C     0.44166000000000005   0.6587 0.396119     C
C     0.44166099999999986 0.658699 0.0035198799999999995     C
C     0.4433489999999998 0.7789890000000002  0.91045     C
C     0.44334899999999994 0.36720900000000006  0.91045     C
C     0.44334900000000005 0.9104490000000002  0.36721     C
C     0.44334999999999997 0.7789900000000001  0.36721     C
C     0.4433500000000002 0.9104490000000001 0.778989     C
C     0.443351 0.3672100000000001 0.778989     C
H     0.44481099999999985 0.9241230000000001 0.306068     H
H     0.44481099999999996 0.824997 0.306068     H
H     0.44481100000000007 0.30606699999999987 0.824999     H
H     0.44481199999999993 0.306066 0.924123     H
H     0.444812 0.924121 0.824999     H
H     0.44481200000000004 0.824997 0.924123     H
C     0.4475680000000001 0.8062099999999999  0.92543     C
C     0.4475689999999998  0.32079  0.92543     C
C     0.447569  0.32079  0.80621     C
C     0.4475690000000001 0.9254279999999998  0.80621     C
C     0.4475699999999998 0.806209 0.320791     C
C      0.44757  0.92543 0.320791     C
H     0.4501292337677043 0.39782606791467634 0.8756000114015406     H
H     0.4501307534311406 0.8755987590992252 0.3978263947116588     H
H     0.45013105775488244 0.7764378142830797 0.875601309240286     H
H     0.45013314450910774 0.8755998803496112 0.7764378798656297     H
H     0.45013471569336816 0.7764407097305474 0.3978251932445745     H
H     0.4501390169373624 0.39782363397426107 0.776438614513233     H
C     0.45239899999999983 0.04570010000000001 0.292661     C
C     0.4523989999999999 0.29266000000000003  0.70924     C
C     0.4523989999999999  0.70924   0.0457     C
C     0.452399 0.045700399999999974  0.70924     C
C     0.4523999999999999 0.292659   0.0457     C
C     0.45239999999999997 0.7092390000000001 0.292661     C
H     0.4551329999999999 0.669388 0.414506     H
H     0.45513299999999995 0.41450499999999996 0.669389     H
H     0.4551339999999998 0.669389  0.96097     H
H     0.45513399999999987 0.9609710000000002 0.669389     H
H     0.4551339999999999 0.9609710000000001 0.414506     H
H     0.45513499999999985 0.41450599999999993  0.96097     H
H     0.45617099999999977 0.3736289999999999 0.737828     H
H     0.45617099999999994 0.3736310000000001 0.932369     H
H     0.456171  0.93237  0.37363     H
H     0.4561719999999997 0.932368 0.737828     H
H     0.4561719999999999 0.737827  0.37363     H
H     0.4561729999999999 0.737827 0.932369     H
C     0.4563290000000002 0.7567300000000001  0.92735     C
C     0.4563299999999998 0.927349 0.359589     C
C     0.45632999999999985 0.359589 0.756729     C
C     0.45632999999999985 0.9273490000000002 0.756729     C
C     0.4563299999999999  0.75673 0.359589     C
C     0.4563300000000001 0.35958900000000005  0.92735     C
C     0.4619389999999998 0.31358000000000014 0.9413399999999998     C
C     0.4619389999999999 0.31357900000000005 0.7831399999999998     C
C     0.46193899999999993 0.941339 0.313579     C
C     0.4619399999999999 0.9413390000000001 0.7831399999999998     C
C     0.46193999999999996 0.783139 0.313579     C
C     0.46193999999999996 0.7831400000000002 0.9413399999999998     C
O     0.462499 0.30366000000000004 0.683059     O
O     0.4624990000000001 0.050779800000000014 0.683059     O
O     0.46249999999999986  0.68306 0.05077899999999999     O
O     0.46249999999999997  0.30366 0.05077899999999999     O
O       0.4625 0.05078070000000001 0.303659     O
O       0.4625 0.683059 0.303659     O
O     0.46539899999999995  0.28166 0.0278394     O
O     0.46539899999999995 0.725099 0.281661     O
O     0.46539900000000006 0.02784020000000001 0.281661     O
O     0.4653999999999998 0.7250990000000003 0.0278394     O
O       0.4654 0.027839800000000026 0.725099     O
O       0.4654 0.28165899999999994 0.725099     O
C     0.4656389999999999 0.3739199999999999 0.0034809     C
C     0.465639 0.003478960000000003 0.656961     C
C     0.465639 0.003479770000000021 0.3739199999999999     C
C     0.465639 0.373919 0.656961     C
C     0.465639 0.656959 0.0034809     C
C     0.465639 0.6569600000000001 0.3739199999999999     C
H     0.46637299999999987 0.7836079999999999 0.294588     H
H     0.4663729999999999 0.294589 0.783608     H
H     0.46637399999999984 0.2945890000000001 0.955429     H
H     0.466374 0.955429 0.294588     H
H     0.4663740000000002 0.7836069999999999 0.955429     H
H     0.4663740000000002 0.9554279999999999 0.783608     H
O     0.469129 0.02470989999999998  0.35535     O
O     0.469129 0.35534999999999994 0.650809     O
O     0.469129 0.650809  0.35535     O
O     0.46912999999999994 0.35534999999999994 0.0247093     O
O     0.46913099999999985 0.6508090000000001 0.0247093     O
O     0.46913099999999996 0.024709399999999992 0.650809     O
C     0.47008799999999995 0.7598300000000001 0.33209099999999997     C
C     0.47008899999999987  0.33209  0.75983     C
C     0.47008899999999987  0.33209  0.93799     C
C     0.4700890000000001 0.937989 0.33209099999999997     C
C      0.47009 0.7598299999999999  0.93799     C
C     0.4700900000000001 0.9379890000000001  0.75983     C
O     0.4778189999999999 0.9830580000000001 0.6709600000000001     O
O     0.47781899999999994  0.67096  0.98306     O
O     0.4778190000000001 0.368159 0.6709600000000001     O
O     0.4778199999999999 0.9830600000000002 0.368159     O
O     0.47781999999999997 0.36815899999999996  0.98306     O
O      0.47782  0.67096 0.368159     O
F     0.48355799999999993 0.328041  0.62144     F
C     0.48392899999999983 0.9542290000000001  0.73919     C
C     0.48392899999999994 0.32264899999999996  0.73919     C
C     0.48392900000000005  0.73919  0.32265     C
C     0.48392999999999986 0.954229  0.32265     C
C     0.4839300000000002 0.7391889999999999 0.954229     C
C     0.4839309999999999 0.3226490000000001 0.954229     C
O     0.48521899999999996 0.7457600000000001 0.969719     O
O     0.485219 0.9697200000000001 0.745761     O
O     0.4852199999999998 0.29929999999999995 0.745761     O
O     0.4852199999999999   0.2993 0.969719     O
O     0.48522099999999996 0.969719 0.299299     O
O     0.48522100000000007 0.7457590000000001 0.299299     O
O     0.4864490000000001 0.9591290000000001  0.33839     O
O     0.48644900000000013 0.33838899999999994 0.9591299999999999     O
O     0.48644999999999994 0.7160290000000001 0.9591299999999999     O
O      0.48645 0.7160290000000001  0.33839     O
O     0.48645099999999986 0.959129 0.716029     O
O     0.48645099999999997 0.33838999999999997 0.716029     O
Cr    0.49018899999999993 0.3203500000000001 0.0356295    Cr
Cr    0.490189 0.0356306  0.32035    Cr
Cr    0.490189 0.320349 0.6538299999999999    Cr
Cr    0.4901890000000001  0.65383  0.32035    Cr
Cr    0.4901900000000001 0.03562980000000002 0.6538299999999999    Cr
Cr    0.4901900000000002  0.65383 0.0356295    Cr
Cr    0.4999989999999999 4.214550000103401e-07 0.284101    Cr
O     0.4999989999999999  0.68377      0.0     O
F     0.49999899999999997 2.648839999841446e-07  0.74954     F
O     0.4999990000000001 2.882550000082862e-07 0.6837689999999998     O
Cr    0.4999990000000001   0.2841      0.0    Cr
O     0.4999999999999999 -1.8059900001865525e-07  0.31623     O
Cr    0.4999999999999999 0.284099   0.7159    Cr
Cr    0.49999999999999994 0.715899 0.284101    Cr
O          0.5  0.68377  0.31623     O
Cr    0.500001 -9.634630000199262e-07   0.7159    Cr
O     0.500001 0.316229      0.0     O
O     0.500001  0.31623 0.6837689999999998     O
Cr    0.500001 0.715899      0.0    Cr
Cr    0.5098099999999999 0.34617100000000006 0.964369    Cr
Cr    0.5098099999999999 0.6796490000000002 0.964369    Cr
Cr    0.5098099999999999 0.9643690000000001  0.34617    Cr
Cr     0.50981 0.6796490000000001  0.34617    Cr
Cr    0.5098100000000001  0.96437 0.679649    Cr
Cr    0.509811 0.346169 0.679649    Cr
O     0.5135499999999998 0.661609  0.28397     O
O     0.5135499999999998 0.6616090000000001 0.0408704     O
O      0.51355 0.040870100000000006  0.28397     O
O      0.51355 0.04087039999999997 0.661609     O
O     0.5135500000000001  0.28397 0.0408704     O
O     0.5135509999999999  0.28397 0.661609     O
O     0.5147789999999999 0.030280699999999994  0.25424     O
O     0.5147789999999999 0.254241 0.0302795     O
O     0.514779 0.030280299999999954   0.7007     O
O     0.514779 0.700699 0.0302795     O
O      0.51478  0.25424   0.7007     O
O     0.5147809999999999 0.700699  0.25424     O
H     0.515252491385455 0.7252117582817614 0.21394584688284712     H
H     0.515253549199848 0.2139462344677608 0.7252128808746843     H
H     0.5152547341837919 0.045584579993177055 0.2139455482059904     H
H     0.5152552538935403 0.21393978346362189 0.04558949452882383     H
H     0.5152570126950151 0.04558670037930662 0.7252141444230709     H
H     0.5152585532763003 0.7252132002048627 0.045584713488497616     H
C     0.5160699999999999 0.045769500000000005  0.26081     C
C     0.5160699999999999  0.26081 0.0457701     C
C     0.5160699999999999 0.260811 0.677349     C
C      0.51607 0.6773500000000001 0.0457701     C
C      0.51607 0.6773500000000001  0.26081     C
C     0.516071 0.04577050000000002 0.677349     C
F     0.5164390000000001 0.6719599999999999 0.378561     F
F     0.5164390000000002 0.933039 0.378561     F
F      0.51644 0.37856000000000006 0.933039     F
F     0.5164400000000002 0.671959 0.933039     F
O     0.5221789999999998 0.016940200000000016 0.329041     O
O     0.522179 0.631839 0.0169406     O
O     0.5221790000000001 0.016940599999999972  0.63184     O
O     0.5221790000000001  0.32904 0.0169406     O
O     0.5221790000000001 0.6318389999999999 0.329041     O
O     0.5221799999999999 0.3290390000000001  0.63184     O
H     0.5256793824433074 0.34378840709851055 1.05143428462572     H
H     0.5256801670121863 0.3437892386072633 0.5790950328087919     H
H     0.5256804454942993 1.0514352180773083 0.34379073872557103     H
H     0.5256805192951279 0.579094268911096 1.051434909978483     H
H     0.5256814866501155 0.5790913105332652 0.3437906266735533     H
H     0.5256824956174875 1.051436983523774 0.5790946080003514     H
C     0.5299089999999999 0.06200979999999999  0.24017     C
C     0.5299089999999999 0.24017100000000002 0.0620091     C
C     0.5299089999999999 0.667911 0.0620091     C
C     0.5299099999999999 0.6679090000000001  0.24017     C
C      0.52991 0.06200919999999999  0.66791     C
C      0.52991 0.24017000000000005  0.66791     C
O     0.5308699999999998 0.9752900000000002 0.34918899999999997     O
O      0.53087 0.34918999999999994 0.975289     O
O      0.53087  0.64465 0.975289     O
O      0.53087 0.6446510000000001 0.34918899999999997     O
O      0.53087 0.975289 0.644649     O
O     0.5308700000000001  0.34919 0.644649     O
N     0.5321547945234891 0.7108253267206452 0.21663225822655693     N
N     0.5321558152942923 0.21663226099833308 0.7108260296786368     N
N     0.5321565092628436 0.04038348577705145 0.21663228777095037     N
N     0.5321568878088299 0.2166274701970023 0.04038712051988322     N
N     0.5321585529490823 0.04038525205800442 0.7108266920967348     N
N     0.5321599350242837 0.7108249789256061 0.0403846440894567     N
C     0.5343599999999998 0.6260800000000001  0.34304     C
C     0.5343599999999998  0.99652  0.34304     C
C      0.53436 0.3430389999999999  0.99652     C
C      0.53436 0.626079  0.99652     C
C     0.5343600000000001 0.343039 0.6260789999999999     C
C     0.5343600000000002 0.9965190000000002 0.6260789999999999     C
O     0.5345989999999999 0.274899  0.71834     O
O     0.534599 0.27489999999999987 0.972159     O
O     0.534599  0.71834   0.2749     O
O     0.5345990000000002 0.9721590000000001   0.2749     O
O     0.5345990000000002  0.97216  0.71834     O
O       0.5346  0.71834 0.972159     O
O     0.5374989999999997 0.696339  0.94922     O
O     0.5374989999999998 0.696341 0.31693899999999997     O
O     0.537499  0.31694  0.69634     O
O     0.5374999999999996 0.949219  0.69634     O
O     0.5374999999999999  0.31694  0.94922     O
O     0.5374999999999999 0.9492189999999999 0.31693899999999997     O
C     0.5380589999999998 0.216859 0.0586608     C
C     0.5380589999999998  0.21686  0.68642     C
C     0.538059 0.058659100000000006  0.21686     C
C     0.538059 0.686419  0.21686     C
C     0.5380599999999999 0.05865999999999999  0.68642     C
C      0.53806 0.6864189999999999 0.0586608     C
N     0.5405610392915762 0.32926784663133113 1.0443776097712134     N
N     0.5405614086647663 0.5857908979095212 1.0443782721811787     N
N     0.5405614678909502 0.3292683569818575 0.5857910048218052     N
N     0.5405615911195739 1.0443790255152718 0.3292696684107863     N
N     0.5405622606421872 0.5857880390637016 0.3292695904045152     N
N     0.5405639665264714 1.0443789106465329 0.5857909359072777     N
H     0.5408536435692313 0.5942694949280274 1.0544237616482246     H
H     0.5408537686597052 0.3104513467177444 1.0544225725736907     H
H     0.5408541580804171 0.3104519131256512 0.5942690238770226     H
H     0.5408542171375769 1.0544251474645232 0.3104532660518001     H
H     0.5408550098915275 0.5942653616846997 0.31045316443446647     H
H     0.5408579344332829 1.0544235108558597 0.5942692599195836     H
C     0.5436689999999997  0.64041 0.0726506     C
C     0.5436689999999998 0.07264970000000004  0.64041     C
C     0.543669 0.0726506 0.243269     C
C     0.543669  0.24327 0.0726506     C
C     0.5436699999999999  0.64041 0.243269     C
C      0.54367  0.24327  0.64041     C
H     0.5438269999999998 0.626369 0.262173     H
H     0.543827 0.06763030000000002 0.262173     H
H     0.543827 0.262172  0.06763     H
H     0.543828 0.06762959999999998 0.626369     H
H     0.543828 0.26217200000000007 0.626369     H
H     0.543828 0.626369  0.06763     H
H     0.5446931197006242 0.7144783540400056 0.2191503386942436     H
H     0.5446948579106047 0.21914995870158643 0.7144784178102771     H
H     0.5446955737970407 0.021674328874398838 0.21915071829704755     H
H     0.5446960909741236 0.21914402620642778 0.021678113851725883     H
H     0.5446981540785579 0.021676381344792495 0.7144789687114634     H
H     0.5447003991815202 0.7144759594609283 0.021676111626101374     H
C     0.5475979999999999 0.7073400000000001  0.29076     C
C     0.5475989999999997 0.29075999999999996  0.70734     C
C     0.5475989999999997 0.7073400000000001 0.954299     C
C     0.547599 0.9542999999999999  0.70734     C
C     0.5475990000000001   0.9543  0.29076     C
C     0.5476000000000001 0.29075999999999996 0.954299     C
H     0.5477473509095073 0.755973239844008 0.2376774316706056     H
H     0.5477481104568402 0.23767946257397854 0.9585972173990365     H
H     0.547748639646543 0.23767764850280004 0.7559777213403077     H
H     0.5477492051866415 0.7559744403144585 0.9585975119660802     H
H     0.5477497979645939 0.9585939673711178 0.23767744040098382     H
H     0.5477507677325444 0.9585956210569275 0.7559771605219565     H
C     0.552428  0.67921 0.0745704     C
C     0.552429 0.07456889999999997  0.67921     C
C     0.552429  0.19379  0.67921     C
C     0.5524290000000001 0.193791 0.0745704     C
C      0.55243 0.07457019999999999  0.19379     C
C     0.5524300000000001 0.6792090000000001  0.19379     C
H     0.5551869999999999 0.07587769999999999 0.693933     H
H     0.555187 0.6939319999999999 0.0758782     H
H     0.5551879999999999 0.175001 0.0758782     H
H     0.555188 0.07587719999999999 0.175002     H
H     0.555188 0.17500099999999996 0.693933     H
H     0.5551880000000001 0.6939309999999999 0.175002     H
C     0.5566490000000001 0.22101099999999999 0.632789     C
C     0.5566490000000001  0.63279  0.22101     C
C     0.5566499999999999 0.08955020000000005 0.632789     C
C     0.5566499999999999 0.0895503  0.22101     C
C     0.5566499999999999 0.22100900000000004 0.0895504     C
C      0.55665 0.6327900000000001 0.0895504     C
H     0.5575591512713949 0.23221219806832205 0.7269234461159817     H
H     0.5575596284572559 0.23221633450562984 0.9833046848863862     H
H     0.5575599929533444 0.9833032276835325 0.2322124061701374     H
H     0.5575608475197245 0.7269183306241174 0.9833047192316587     H
H     0.5575614602091505 0.7269173533562813 0.23221307618029846     H
H     0.5575620951121206 0.9833037597683159 0.7269220381092993     H
C     0.5583389999999998 0.603881 0.996479     C
C     0.5583399999999997  0.60388   0.3413     C
C     0.5583399999999997 0.9964790000000001  0.60388     C
C     0.5583399999999998 0.341299  0.60388     C
C     0.558341 0.34129999999999994 0.996479     C
C     0.558341 0.996479   0.3413     C
N     0.5594579712875013 0.23935522970056836 0.7370897912935661     N
N     0.5594582221432411 0.2393576719496982 0.9640967262311863     N
N     0.5594583437417322 0.7370856610096297 0.23935547112017133     N
N     0.5594589712875017 0.9640950077183644 0.2393552297005682     N
N     0.5594590668610544 0.7370864560569401 0.964096846310285     N
N     0.5594600927845601 0.9640958056981046 0.7370890725161726     N
C     0.5602989999999998 0.583379 0.335081     C
C     0.5602989999999999  0.33508 0.0212401     C
C     0.5602989999999999  0.33508  0.58338     C
C     0.5602989999999999  0.58338 0.0212401     C
C     0.5602990000000001 0.0212406 0.335081     C
C     0.5603000000000002 0.02124000000000001  0.58338     C
H     0.5613789999999999 0.102402 0.223103     H
H     0.5613799999999999 0.223103 0.102402     H
H      0.56138 0.223104 0.613114     H
H     0.5613809999999999 0.6131139999999999 0.223103     H
H     0.561381 0.10240200000000002 0.613114     H
H     0.561381 0.613113 0.102402     H
C     0.563078 0.08870050000000002   0.6523     C
C     0.5630789999999999 0.652299 0.08870059999999999     C
C     0.563079 0.08870000000000003 0.19592099999999998     C
C     0.563079 0.19592000000000004 0.08870059999999999     C
C     0.563079 0.19592000000000004   0.6523     C
C      0.56308 0.652299 0.19592099999999998     C
C     0.571859 0.278579 0.7116389999999999     C
C     0.571859 0.7116390000000001 0.278579     C
C      0.57186  0.71164 0.937919     C
C     0.571861 0.9379190000000001 0.7116389999999999     C
C     0.5718610000000001  0.93792 0.278579     C
C     0.5718610000000002 0.27857899999999997 0.937919     C
C     0.574098 0.10732000000000003   0.6465     C
C     0.574099  0.17208   0.6465     C
C       0.5741 0.172081 0.107319     C
C       0.5741 0.6464989999999999 0.107319     C
C       0.5741 0.6464990000000002  0.17208     C
C     0.5741000000000002 0.107319  0.17208     C
C     0.5778689999999997 0.7252890000000001 0.251289     C
C     0.577869 0.251289  0.72529     C
C     0.5778699999999999  0.25129 0.9455499999999999     C
C     0.5778699999999999 0.9455500000000001 0.251289     C
C      0.57787 0.7252890000000001 0.9455499999999999     C
C      0.57787 0.9455500000000001  0.72529     C
O     0.578658  0.12512 0.172381     O
O     0.578659  0.17238 0.125119     O
O     0.578659  0.62384 0.172381     O
O      0.57866 0.12511999999999995 0.623839     O
O      0.57866 0.17238000000000003 0.623839     O
O      0.57866 0.6238410000000001 0.125119     O
C     0.5815989999999999 0.9744590000000001 0.339741     C
C     0.5815990000000001 0.33974099999999996 0.974459     C
C     0.5815999999999999 0.33973899999999996 0.604199     C
C     0.5815999999999999 0.9744600000000001 0.604199     C
C       0.5816 0.6041990000000002 0.339741     C
C     0.5816010000000003 0.604199 0.974459     C
H     0.582106  0.33856 0.621524     H
H     0.582106 0.9578080000000001 0.338559     H
H     0.5821060000000002 0.33855999999999997 0.957807     H
H     0.5821069999999998 0.621524 0.338559     H
H     0.5821070000000003 0.6215249999999999 0.957807     H
H     0.5821080000000001 0.9578069999999999 0.621524     H
O     0.5822989999999999 0.15031899999999998  0.10384     O
O     0.5822990000000001 0.10383999999999999  0.15032     O
O     0.5822999999999999 0.15032000000000004 0.6635399999999999     O
O     0.5822999999999999 0.663539  0.10384     O
O     0.5822999999999999 0.6635390000000001  0.15032     O
O       0.5823 0.10384000000000007 0.6635399999999999     O
F     0.5823690000000001  0.58237 0.167631     F
C     0.5833789999999999 0.3350800000000001   0.5603     C
C     0.583379 0.0212406 0.335081     C
C     0.583379   0.5603 0.335081     C
C     0.5833799999999999  0.33508 0.0212401     C
C      0.58338 0.021239500000000022   0.5603     C
C     0.5833809999999999 0.5602990000000001 0.0212401     C
H     0.585493 0.330612 0.0390286     H
H     0.5854930000000002 0.0390291 0.330611     H
H     0.585494 0.03902829999999999 0.544866     H
H     0.5854940000000001 0.3306109999999999 0.544866     H
H     0.5854940000000001 0.544866 0.0390286     H
H     0.5854940000000001 0.544866 0.330611     H
H     0.5867879999999999 0.310694 0.916408     H
H     0.586788 0.310694 0.6861099999999999     H
H     0.586788 0.6861090000000001 0.310695     H
H     0.586788 0.9164070000000001 0.6861099999999999     H
H     0.586788 0.9164080000000002 0.310695     H
H     0.5867880000000002 0.6861079999999999 0.916408     H
C     0.5911489999999999 0.2903700000000001 0.9211889999999999     C
C     0.591149 0.921189 0.290371     C
C     0.5911490000000001 0.6972900000000001 0.290371     C
C     0.5911490000000001  0.92119 0.697289     C
C     0.5911499999999998 0.290371 0.697289     C
C     0.5911499999999998 0.697289 0.9211889999999999     C
H     0.5938830171397035 0.5802189367720847 0.10018575238271003     H
H     0.5938832146187949 0.10018455793181524 0.22571179009617226     H
H     0.5938835700069451 0.5802176785843167 0.2257126847153024     H
H     0.5938842933351853 0.22571223987202443 0.5802202450363131     H
H     0.5938847150989497 0.2257086237466958 0.10018540084838536     H
H     0.5938847974179204 0.10018620607059575 0.5802204713768604     H
H     0.6021709617148382 0.12439915684328522 0.22355988397782972     H
H     0.6021713454818913 0.22356002485881507 0.5498701572663226     H
H     0.6021718928520173 0.5498685959460954 0.12440001033055756     H
H     0.60217252371637 0.22355634892673865 0.12440014673449619     H
H     0.6021733025083487 0.12440042351835712 0.5498699554462102     H
H     0.6021734817576421 0.5498672573147594 0.22355943262735226     H
C     0.6029799999999997 0.23637999999999998 0.726699     C
C     0.6029799999999997 0.7267000000000001  0.23638     C
C     0.6029799999999997 0.9339400000000001  0.23638     C
C     0.6029799999999998 0.23637999999999998  0.93394     C
C     0.6029799999999998 0.726699  0.93394     C
C      0.60298 0.933939 0.726699     C
C     0.6038799999999998 0.34129999999999994  0.55834     C
C     0.6038799999999999 0.558339 0.996479     C
C     0.6038799999999999 0.9964790000000001  0.55834     C
C      0.60388 0.34129999999999994 0.996479     C
C     0.6038800000000001 0.5583399999999998   0.3413     C
C     0.6038800000000002 0.996479   0.3413     C
C     0.6041989999999997 0.5815999999999999 0.974459     C
C     0.6041989999999999  0.97446 0.581599     C
C     0.604199 0.9744590000000001 0.339741     C
C     0.6041990000000003 0.33974099999999996 0.974459     C
C     0.6041999999999997 0.5816000000000001 0.339741     C
C       0.6042 0.33974100000000007 0.581599     C
Cr    0.604209  0.14579 0.604209    Cr
Cr    0.604209 0.604209  0.14579    Cr
Cr    0.6042100000000001  0.14579  0.14579    Cr
F     0.607109 0.0963106 0.0963095     F
N     0.6074072865979931 0.10615524666392545 0.22365743656669915     N
N     0.6074075544414225 0.562778781786002 0.1061560213080181     N
N     0.6074080903617902 0.22365765220332237 0.5627798294120734     N
N     0.6074086061997699 0.5627778337409326 0.2236575983949374     N
N     0.6074086744881327 0.22365472018236499 0.10615594276835356     N
N     0.6074089888619711 0.10615622984993525 0.5627798383639782     N
H     0.6085330000000001  0.21579 0.7365869999999999     H
H     0.608534 0.7365860000000001  0.21579     H
H     0.6085349999999998 0.736586 0.939089     H
H     0.6085349999999999 0.939088 0.7365869999999999     H
H     0.6085349999999999 0.9390890000000001  0.21579     H
H     0.608535 0.21578899999999995 0.939089     H
H     0.6087444232402986 0.6986999376139614 0.15602145938660744     H
H     0.6087445290332083 1.036534997150232 0.698699158365782     H
H     0.6087445910292094 0.6986983786383968 0.03653578892917533     H
H     0.6087446272431627 0.1560203662115105 0.03653627597712769     H
H     0.6087446733696247 0.15601618586832205 0.69870034539519     H
H     0.6087456743136914 0.03653615131656123 0.15602148607624852     H
Cr     0.60876  0.11382 0.113819    Cr
Cr     0.60876 0.11382000000000003 0.663599    Cr
Cr     0.60876 0.663601 0.113819    Cr
C     0.6163189999999997   0.2751   0.6978     C
C     0.6163189999999997 0.697799   0.2751     C
C     0.6163189999999998 0.2750989999999999  0.91078     C
C     0.6163189999999998 0.6977990000000001  0.91078     C
C     0.616319 0.9107800000000003   0.2751     C
C     0.6163190000000001  0.91078   0.6978     C
C     0.6211399999999998 0.24922099999999997 0.714639     C
C     0.6211399999999998 0.24922099999999997 0.914999     C
C     0.6211399999999998 0.714639 0.914999     C
C     0.6211399999999998 0.9149990000000001 0.714639     C
C      0.62114  0.71464  0.24922     C
C      0.62114 0.9149999999999999  0.24922     C
F     0.6214389999999999 0.06696019999999998 0.328041     F
F     0.621439 0.48356099999999996 0.0669596     F
F      0.62144 0.32803999999999994 0.0669596     F
H     0.6215229999999999 0.338561 0.582108     H
H     0.621523 0.957807 0.582108     H
H     0.6215239999999999 0.582107 0.338559     H
H     0.621524 0.582106 0.957807     H
H     0.621524 0.9578080000000001 0.338559     H
H     0.6215240000000002 0.33855999999999997 0.957807     H
O     0.623838  0.12512 0.172381     O
O     0.6238389999999998 0.578659 0.125119     O
O     0.6238389999999999 0.578659 0.172381     O
O     0.623839 0.12511999999999998  0.57866     O
O     0.623839 0.1723790000000001  0.57866     O
O     0.623839  0.17238 0.125119     O
H     0.6239545745974694 0.7116287159088313 0.12212257499908163     H
H     0.6239551416914054 1.0422947845639992 0.7116275945884107     H
H     0.6239551689905528 0.7116268006354852 0.04229563610507812     H
H     0.6239553916032466 0.04229625566068665 0.12212255764151482     H
H     0.6239554192239075 0.12212146345353786 0.04229655467817451     H
H     0.6239579708276777 0.12211781036057387 0.7116277903676566     H
N     0.625243332543947 0.7001845877940355 0.1402911554106484     N
N     0.6252435782010498 1.034281298086148 0.7001838939356576     N
N     0.6252436108008655 0.700183319417449 0.03428189802837832     N
N     0.6252437153768668 0.14029035051263664 0.03428241119161836     N
N     0.6252443573982472 0.03428209461074134 0.14029115881759616     N
N     0.625244663754571 0.14028722084547 0.7001843987705629     N
C     0.6260789999999999 0.534359  0.34304     C
C     0.626079 0.3430400000000001 0.534359     C
C     0.626079 0.534359  0.99652     C
C     0.6260790000000002 0.9965200000000001 0.534359     C
C     0.6260799999999997 0.3430389999999999  0.99652     C
C     0.6260799999999999  0.99652  0.34304     C
O     0.626328 0.12367099999999998  0.62633     O
O     0.6263290000000001  0.62633 0.123669     O
O      0.62633 0.12366900000000003 0.123669     O
H     0.6263679999999999 0.262172  0.06763     H
H     0.6263679999999999 0.262173 0.543827     H
H     0.626368 0.06763030000000002 0.262173     H
H     0.626368 0.543827 0.262173     H
H     0.6263689999999997 0.06763019999999997 0.543827     H
H     0.6263689999999998 0.543827  0.06763     H
O     0.6316089999999999 0.0759505 0.127269     O
O     0.6316089999999999 0.07595070000000001 0.6651699999999999     O
O     0.6316089999999999  0.12727 0.0759503     O
O     0.6316089999999999 0.665169 0.0759503     O
O     0.6316100000000001 0.127269 0.6651699999999999     O
O     0.6316100000000001  0.66517 0.127269     O
O     0.6318389999999999 0.016940200000000016 0.329041     O
O     0.631839 0.5221789999999998 0.329041     O
O     0.6318390000000002  0.32904 0.0169406     O
O     0.6318390000000003 0.3290400000000001  0.52218     O
O      0.63184 0.01694000000000001  0.52218     O
O      0.63184 0.522179 0.0169406     O
H     0.6319499999999999 0.282876 0.899643     H
H     0.6319509999999998 0.282876 0.685529     H
H     0.6319510000000002 0.899644 0.282875     H
H     0.6319519999999998 0.685528 0.899643     H
H     0.6319519999999998 0.685529 0.282875     H
H     0.631952 0.8996420000000002 0.685529     H
C     0.6327889999999999  0.55665 0.0895504     C
C     0.632789 0.0895503  0.22101     C
C     0.6327899999999999 0.22100900000000004 0.0895504     C
C     0.6327899999999999  0.55665  0.22101     C
C      0.63279 0.08954999999999999  0.55665     C
C      0.63279  0.22101  0.55665     C
C     0.640409 0.543669 0.0726506     C
C      0.64041 0.07264969999999998 0.543669     C
C      0.64041 0.0726506 0.243269     C
C      0.64041  0.24327 0.0726506     C
C      0.64041  0.24327 0.543669     C
C     0.6404100000000001 0.5436699999999999 0.243269     C
O     0.6446489999999999  0.34919  0.53087     O
O     0.6446499999999997  0.53087 0.975289     O
O     0.6446499999999998 0.5308690000000001 0.34918899999999997     O
O     0.6446499999999998 0.9752900000000002 0.34918899999999997     O
O     0.6446500000000001 0.9752889999999999  0.53087     O
O     0.6446500000000002 0.34918999999999994 0.975289     O
H     0.6451611789714159 0.37036968369616385 0.06174852335282949     H
H     0.6451624876952163 0.06174874074618844 0.4227185161604445     H
H     0.6451650180166744 0.37036788384385644 0.42271812540278075     H
C     0.6460989999999998 0.23421999999999998   0.7165     C
C     0.6460999999999999 0.9031789999999997   0.7165     C
C       0.6461 0.903179  0.23422     C
C     0.6461000000000001 0.7165009999999998 0.903179     C
C     0.6461000000000002 0.7164990000000001  0.23422     C
C     0.646101 0.2342200000000001 0.903179     C
C     0.6464989999999999 0.10732000000000003 0.574099     C
C     0.6464989999999999   0.5741 0.107319     C
C       0.6465 0.172081 0.107319     C
C     0.6465000000000001 0.107319  0.17208     C
C     0.6465000000000001  0.17208 0.574099     C
C     0.6465000000000002 0.574099  0.17208     C
C     0.6493089999999999 0.6867099999999999 0.020390399999999996     C
C     0.6493089999999999  0.68671  0.14359     C
C     0.649309 0.020390400000000003 0.6867099999999999     C
C     0.649309  0.14359 0.020390399999999996     C
C     0.6493090000000001 0.143589 0.6867099999999999     C
C      0.64931 0.0203898  0.14359     C
H     0.6493899999999998 0.15407200000000001 0.715044     H
H     0.6493899999999999 0.715044 0.154074     H
H      0.64939 0.15407399999999993 0.981491     H
H      0.64939 0.9814910000000001 0.154074     H
H     0.6493909999999998 0.9814909999999999 0.715044     H
H     0.6493910000000003 0.715043 0.981491     H
O     0.6506989999999999 0.21039999999999998  0.91106     O
O     0.6506989999999999 0.21040000000000003  0.72784     O
O     0.6506990000000001 0.7278389999999999  0.91106     O
O     0.6506990000000001  0.91106  0.72784     O
O     0.6506999999999998 0.7278389999999999   0.2104     O
O     0.6507000000000001 0.911059   0.2104     O
O     0.650809 0.024709800000000004 0.46912999999999994     O
O     0.6508090000000002 0.3553489999999999 0.46912999999999994     O
O     0.6508099999999999 0.35534999999999994 0.0247093     O
O     0.6508099999999999 0.4691289999999999  0.35535     O
O     0.6508099999999999 0.46912899999999996 0.0247093     O
O      0.65081 0.02470989999999998  0.35535     O
H     0.6518230194598029 0.815013126887058 0.8679489113133149     H
H     0.6518258572830128 0.8150134000543396 0.16521030110982232     H
H     0.6518264133471563 0.16520782036385528 0.867949223946466     H
C     0.652299  0.56308 0.08870059999999999     C
C     0.6522990000000001 0.08870039999999998 0.563079     C
C       0.6523 0.08870000000000003 0.19592099999999998     C
C       0.6523  0.19592 0.563079     C
C       0.6523 0.19592000000000004 0.08870059999999999     C
C       0.6523 0.5630800000000001 0.19592099999999998     C
C     0.653609 0.12987100000000001 0.0629096     C
C      0.65361 0.06290969999999999  0.65361     C
C      0.65361 0.0629102 0.129869     C
C      0.65361 0.12986899999999998  0.65361     C
C      0.65361  0.65361 0.0629096     C
C     0.6536109999999999 0.6536090000000001 0.129869     C
Cr     0.65383 0.03562989999999999 0.490189    Cr
Cr     0.65383 0.0356306  0.32035    Cr
Cr     0.65383 0.49018900000000004 0.0356295    Cr
Cr    0.6538300000000001 0.320349 0.490189    Cr
Cr    0.6538300000000001 0.3203500000000001 0.0356295    Cr
Cr    0.6538300000000002 0.490189  0.32035    Cr
F     0.6554489999999997 0.7662890000000001 0.15625099999999997     F
F     0.655449 0.15624999999999994 0.766289     F
C     0.6569589999999998 0.46563999999999994 0.0034809     C
C     0.6569590000000001 0.46564000000000005 0.3739199999999999     C
C      0.65696 0.003479359999999987  0.46564     C
C      0.65696 0.003479770000000021 0.3739199999999999     C
C      0.65696 0.37391899999999995  0.46564     C
C      0.65696 0.3739199999999999 0.0034809     C
C     0.6586989999999999 0.003520000000000023 0.441659     C
C     0.6586989999999999 0.396121 0.441659     C
C     0.6586989999999999  0.44166 0.0035198799999999995     C
C     0.6586999999999998  0.39612 0.0035198799999999995     C
C       0.6587 0.003520240000000008 0.396119     C
C       0.6587 0.44166000000000005 0.396119     C
C     0.6602589999999999 0.0255397   0.4184     C
C     0.6602590000000002 0.39580000000000004 0.0255396     C
C      0.66026 0.41840000000000005 0.0255396     C
C     0.6602600000000001 0.025539299999999987 0.39579899999999996     C
C     0.6602600000000001   0.3958   0.4184     C
C     0.660261 0.418399 0.39579899999999996     C
C     0.6609980000000001 0.148421  0.69802     C
C     0.6609989999999999 0.6980200000000001  0.14842     C
C     0.6609999999999998  0.14842 0.992559     C
C        0.661 0.9925589999999999  0.14842     C
C     0.6610000000000001 0.9925589999999999  0.69802     C
C     0.661001 0.698019 0.992559     C
H     0.661439 0.417893 0.0421918     H
H     0.6614390000000001 0.04219229999999999 0.378475     H
H     0.6614390000000001 0.41789299999999996 0.378475     H
O     0.6616089999999999  0.51355 0.0408704     O
O     0.661609 0.040870100000000006  0.28397     O
O     0.661609  0.28397 0.0408704     O
O     0.661609  0.51355  0.28397     O
O     0.6616090000000001 0.283971  0.51355     O
O     0.6616099999999999 0.04086929999999994  0.51355     O
N     0.6617792312743187 0.37343562207485764 0.047025522333587234     N
N     0.6617801539943101 0.04702524398339469 0.41775797349053484     N
N     0.661782234737497 0.3734348588567795 0.4177579291940559     N
C     0.6618389999999997 0.0342411 0.661839     C
C     0.6618389999999998 0.6618389999999998  0.14208     C
C     0.661839 0.14208000000000007 0.661839     C
C     0.661839 0.6618400000000001 0.0342399     C
C     0.6618390000000001 0.14208100000000004 0.0342399     C
C      0.66184 0.0342392  0.14208     C
O     0.662779 0.7076810000000002 0.8847389999999999     O
O     0.6627790000000001  0.88474 0.707679     O
O     0.6627799999999998 0.244801 0.707679     O
O     0.6627799999999999 0.24480000000000007 0.8847389999999999     O
O     0.6627799999999999 0.8847390000000002 0.244799     O
O     0.6627809999999998 0.707679 0.244799     O
O     0.6635380000000001 0.15032099999999998   0.5823     O
O     0.6635389999999998 0.5823010000000001  0.15032     O
O     0.6635389999999999   0.5823  0.10384     O
O     0.663539 0.10383999999999999   0.5823     O
O     0.6635409999999999 0.15031899999999998  0.10384     O
O     0.663541 0.10383999999999999  0.15032     O
Cr    0.663599 0.6087599999999999 0.113819    Cr
Cr    0.6635990000000002  0.11382  0.60876    Cr
Cr    0.6636010000000001  0.11382 0.113819    Cr
H     0.6639083630014398 0.5870582572859449 0.9263000656116269     H
H     0.6639085942677538 0.32273130073056516 0.9263008545102273     H
H     0.6639089109130173 0.9262995408686864 0.3227328867883161     H
H     0.6639098220651904 0.5870543057911601 0.3227333780813525     H
H     0.6639109433317687 0.32273101509856805 0.5870527246536927     H
H     0.6639115765975069 0.9262996892835494 0.5870535467622411     H
C     0.664919 0.978759 0.41662099999999996     C
C     0.664919 0.9787590000000002   0.4397     C
C     0.6649190000000001   0.4397 0.41662099999999996     C
C      0.66492 0.416619 0.978759     C
C      0.66492 0.41661900000000013   0.4397     C
C      0.66492 0.43970000000000004 0.978759     C
O     0.6651689999999997  0.63161 0.0759503     O
O     0.6651699999999999  0.12727 0.0759503     O
O      0.66517 0.07595039999999997  0.63161     O
O     0.6651709999999998 0.0759505 0.127269     O
O     0.6651709999999998 0.6316100000000001 0.127269     O
O     0.6651710000000001 0.12726900000000002  0.63161     O
C     0.6679090000000001 0.24017000000000002  0.52991     C
C     0.6679090000000001 0.529909  0.24017     C
C     0.6679099999999999 0.24017100000000002 0.0620091     C
C      0.66791 0.06200979999999999  0.24017     C
C      0.66791 0.062010499999999996  0.52991     C
C      0.66791 0.529911 0.0620091     C
H     0.6693879999999998 0.455133  0.96097     H
H     0.669388 0.41450699999999996 0.455133     H
H     0.669388 0.4551339999999999 0.414506     H
H     0.669388 0.9609710000000001 0.455133     H
H     0.6693880000000001 0.9609710000000001 0.414506     H
H     0.6693890000000002 0.41450599999999993  0.96097     H
H     0.6701795500139043 0.10069605515029911 0.4203613030458651     H
H     0.670179718535106 0.4203577308828551 0.3087672991825314     H
H     0.670180022171368 0.4203575368005802 0.10069469123432657     H
H     0.6701800785953229 0.10069693850049216 0.3087679070118589     H
H     0.6701801346336285 0.3087595112531001 0.42036071711937334     H
H     0.670180485519803 0.3087623619313582 0.10069492262072287     H
O     0.6709599999999998 0.9830600000000002 0.368159     O
O      0.67096 0.36815899999999996  0.98306     O
O      0.67096 0.47781899999999994  0.98306     O
O     0.6709600000000001 0.36815999999999993 0.477819     O
O     0.6709600000000001 0.9830590000000001 0.477819     O
O     0.6709610000000001 0.477819 0.368159     O
N     0.6710151742134856 0.8121210566304569 0.8568502620918005     N
N     0.6710178205554945 0.8121211039861637 0.16001016339391907     N
N     0.671018343575936 0.16000830702921587 0.8568494300041614     N
F     0.6719589999999999 0.9330400000000001  0.51644     F
F     0.6719590000000002  0.37856  0.51644     F
H     0.6731869999999999 0.164182 0.810906     H
H     0.6731870000000002 0.851723 0.164181     H
H     0.6731880000000001 0.8517240000000001 0.810906     H
O     0.6746780000000003 0.7125599999999999  0.94354     O
O     0.6746789999999998 0.169219  0.94354     O
O     0.674679 0.9435399999999999 0.712559     O
O     0.6746790000000001 0.943539 0.169219     O
O     0.6746799999999998 0.16922100000000004 0.712559     O
O     0.6746800000000001  0.71256 0.169219     O
O     0.6746990000000003 0.18393899999999996  0.87362     O
O     0.6746999999999999 0.7677379999999999  0.87362     O
O     0.6746999999999999 0.873619  0.18394     O
O     0.6746999999999999 0.8736190000000001 0.767739     O
O       0.6747 0.18393999999999988 0.767739     O
O       0.6747 0.7677390000000001  0.18394     O
H     0.6772653001581485 0.3360875968309981 0.41294321043039783     H
H     0.677266660269299 0.07370044341415435 0.4129424559998011     H
H     0.6772675817171474 0.33608931318573415 0.0736985954108158     H
H     0.677269764331169 0.41293914889558003 0.0736978053086672     H
H     0.6772704857772772 0.41293886405623637 0.33609236022284034     H
H     0.6772705181433067 0.07369978095093235 0.33609299439878004     H
C     0.677349 0.26080999999999993  0.51607     C
C     0.677349  0.26081 0.0457701     C
C     0.677349  0.51607  0.26081     C
C     0.6773499999999999 0.045769500000000005  0.26081     C
C      0.67735  0.51607 0.0457701     C
C     0.6773500000000001 0.045769700000000024  0.51607     C
Cr    0.6781189999999999 0.17628100000000002 0.7387989999999999    Cr
Cr    0.6781190000000001 0.738799   0.9068    Cr
Cr    0.6781199999999998 0.17628100000000002   0.9068    Cr
Cr     0.67812 0.906799 0.7387989999999999    Cr
Cr     0.67812   0.9068 0.17628100000000002    Cr
Cr    0.6781200000000001 0.738798 0.17628100000000002    Cr
C     0.6792080000000003  0.55243  0.19379     C
C     0.679209 0.07457019999999999  0.19379     C
C     0.679209 0.19378999999999993  0.55243     C
C     0.6792090000000001 0.193791 0.0745704     C
C     0.6792100000000001 0.07456949999999998  0.55243     C
C     0.6792100000000001  0.55243 0.0745704     C
H     0.6795209327799788 0.3599713680740982 0.048183420430474556     H
H     0.6795221515065899 0.04818236668658818 0.41232288948754237     H
H     0.6795245814816866 0.35997107737253964 0.4123231589113723     H
Cr    0.679649 0.34617100000000006 0.964369    Cr
Cr    0.679649 0.5098100000000001 0.964369    Cr
Cr    0.679649 0.964369  0.50981    Cr
Cr    0.6796499999999996 0.34617000000000003  0.50981    Cr
Cr    0.6796499999999996 0.9643690000000001  0.34617    Cr
Cr     0.67965  0.50981  0.34617    Cr
C     0.679969 0.810149  0.83267     C
C     0.6799699999999996 0.832669  0.17721     C
C     0.6799699999999999 0.17720999999999998 0.810149     C
C     0.6799699999999999 0.810149  0.17721     C
C     0.6799699999999999 0.8326689999999999 0.810149     C
C      0.67997 0.177209  0.83267     C
N     0.68289208632617 0.585454208917332 0.9150649830866568     N
N     0.6828921662988687 0.31658674945293264 0.9150654291888262     N
N     0.6828926339316082 0.9150646593577573 0.31658786662464766     N
N     0.6828934707273365 0.5854508503915347 0.31658810691158074     N
N     0.6828942986351894 0.3165860738477853 0.5854500152491714     N
N     0.682895233899977 0.91506507238402 0.5854503855027372     N
O     0.683059 0.0507802   0.4625     O
O     0.6830599999999999 0.303659   0.4625     O
O      0.68306 0.05078070000000001 0.303659     O
O      0.68306  0.30366 0.05077899999999999     O
O      0.68306 0.462499 0.05077899999999999     O
O      0.68306 0.46250099999999994 0.303659     O
N     0.6834117142890612 0.3171037537449881 0.41454667196261474     N
N     0.683411997404979 0.08493483439654659 0.41454661044524316     N
N     0.6834129451817441 0.3171056909157638 0.08493353039246644     N
N     0.6834135728501326 0.4145437582700267 0.0849331574680771     N
N     0.6834137253838859 0.4145437251364938 0.3171086058146594     N
N     0.6834138686506112 0.08493499599020259 0.3171090592451538     N
H     0.6835892838206143 0.8106865934485408 0.8636239805033552     H
H     0.6835929555429071 0.810686449994717 0.14209710296917333     H
H     0.6835938320999735 0.14209523802051865 0.8636213886736285     H
O     0.6837689999999998 6.477599999998862e-07      0.5     O
O     0.683769 0.316229      0.0     O
O     0.6837690000000001 -1.8059900001865525e-07  0.31623     O
O     0.6837690000000001  0.31623      0.5     O
O     0.6837690000000001      0.5  0.31623     O
O     0.6837699999999998      0.5      0.0     O
H     0.6847669999999999 0.7690620000000001 0.809539     H
H     0.6847679999999998 0.8095390000000002 0.769063     H
H     0.684768 0.23662899999999992 0.769063     H
H     0.684768 0.809539 0.236629     H
H     0.6847680000000003 0.23662899999999998 0.809539     H
H     0.6847680000000003 0.769062 0.236629     H
H     0.6855279999999999 0.899644 0.282875     H
H     0.685528 0.282876 0.899643     H
H     0.6855289999999998 0.631951 0.899643     H
H     0.6855289999999999 0.899643 0.631951     H
H      0.68553 0.28287500000000004 0.631951     H
H      0.68553 0.631951 0.282875     H
C     0.6864189999999999 0.05865970000000004  0.53806     C
C     0.6864189999999999 0.5380590000000001 0.0586608     C
C     0.6864199999999999 0.5380589999999998  0.21686     C
C      0.68642 0.058659100000000006  0.21686     C
C      0.68642 0.216859 0.0586608     C
C      0.68642 0.21686000000000008  0.53806     C
C     0.6867089999999998 0.14359100000000002 0.6493090000000001     C
C     0.6867089999999998 0.6493090000000001  0.14359     C
C     0.686709  0.14359 0.020390399999999996     C
C     0.6867099999999999 0.020389799999999986 0.6493090000000001     C
C     0.6867099999999999 0.649309 0.020390399999999996     C
C      0.68671 0.0203898  0.14359     C
C     0.6867989999999999 0.21937999999999996 0.7856599999999999     C
C     0.6867989999999999 0.7856599999999999 0.219381     C
C     0.6867989999999999 0.808159 0.7856599999999999     C
C     0.686799 0.785659 0.808159     C
C     0.6867999999999997 0.808159 0.219381     C
C     0.6868009999999998 0.219379 0.808159     C
C     0.6872489999999998 0.6872499999999999  0.14589     C
C     0.687249 0.14588999999999996  0.97961     C
C     0.687249 0.687249  0.97961     C
C     0.687249 0.9796090000000002 0.6872499999999999     C
C     0.687249 0.9796099999999999  0.14589     C
C     0.6872499999999999 0.14589000000000008 0.6872499999999999     C
C     0.6889689999999999 0.19630999999999998 0.763031     C
C     0.6889699999999999 0.19631000000000004  0.85169     C
C     0.6889699999999999 0.851688 0.763031     C
C      0.68897 0.7630289999999998 0.19630999999999998     C
C     0.6889700000000002 0.763029  0.85169     C
C     0.6889700000000002 0.8516899999999998 0.19630999999999998     C
C     0.689588  0.82921  0.78551     C
C     0.6895889999999999 0.19569099999999995 0.829209     C
C     0.6895889999999999 0.829208 0.195691     C
C     0.6895890000000001 0.7855099999999999 0.195691     C
C     0.6895890000000001  0.78551 0.829209     C
C     0.6895899999999999 0.19568900000000006  0.78551     C
H     0.691234600376974 0.3298197955970326 0.89930388631134     H
H     0.6912346125876346 0.5796402280093563 0.8993034532779116     H
H     0.6912355646387796 0.8993030912851705 0.32982053048789284     H
H     0.6912369455792533 0.5796357191943473 0.32982069737210773     H
H     0.6912373529298372 0.3298189697888434 0.579635012767951     H
H     0.6912392814763442 0.8993040742031145 0.579635204832213     H
H     0.6939309999999999 0.175001 0.0758782     H
H     0.6939319999999999 0.555187 0.175002     H
H     0.693932 0.07587719999999999 0.175002     H
H     0.693932 0.17500100000000005 0.555188     H
H     0.693932 0.555188 0.0758782     H
H     0.693933 0.07587730000000006 0.555188     H
O     0.6943489999999999 0.21518899999999996 0.8495500000000001     O
O     0.6943489999999999 0.740909 0.8495500000000001     O
O     0.6943489999999999 0.8495490000000001  0.21519     O
O      0.69435  0.21519 0.740909     O
O      0.69435 0.740909  0.21519     O
O      0.69435 0.8495489999999999 0.740909     O
C     0.6946989999999997   0.1585 0.6946989999999998     C
C     0.6946989999999998 0.6946990000000001   0.9521     C
C     0.694699 0.694699   0.1585     C
C     0.694699   0.9521   0.1585     C
C     0.6946990000000001 0.15850000000000003   0.9521     C
C       0.6947 0.952099 0.6946989999999998     C
H     0.6953583096617393 0.906612290134055 0.1084801771528226     H
H     0.6953583807476746 0.7895497697672424 0.10847934162226297     H
H     0.6953599684733351 0.10847390989914135 0.9066099650966916     H
H     0.6953601735737809 0.10847253403708756 0.7895517071047791     H
H     0.6953608996597762 0.9066100125973622 0.7895536659028906     H
H     0.6953609963528318 0.7895541301443045 0.9066101048474807     H
O      0.69634  0.31694 0.537499     O
O      0.69634  0.31694  0.94922     O
O      0.69634   0.5375  0.94922     O
O      0.69634 0.9492189999999999 0.31693899999999997     O
O     0.696341 0.5374989999999998 0.31693899999999997     O
O     0.6963410000000001 0.949219 0.537499     O
C     0.6972889999999999 0.921189 0.290371     C
C     0.697289 0.2903700000000001 0.9211889999999999     C
C     0.697289 0.5911490000000001 0.290371     C
C     0.697289 0.5911500000000001 0.9211889999999999     C
C     0.6972899999999999 0.9211890000000001 0.591149     C
C      0.69729 0.290369 0.591149     C
H     0.6976179999999998 0.030639000000000007 0.141111     H
H     0.6976179999999998  0.14111 0.630632     H
H     0.6976180000000001 0.030637899999999996 0.630632     H
H     0.6976180000000001 0.14111100000000001 0.0306382     H
H     0.6976180000000001  0.63063 0.141111     H
H     0.6976180000000001 0.6306310000000002 0.0306382     H
C     0.6977989999999997 0.9107800000000003   0.2751     C
C     0.6977989999999998 0.2750989999999999  0.91078     C
C     0.6977989999999998  0.61632   0.2751     C
C     0.6977990000000001 0.27509900000000004  0.61632     C
C     0.6977990000000001 0.6163190000000001  0.91078     C
C     0.6977990000000001 0.910779  0.61632     C
C     0.6980189999999997 0.6609999999999999 0.992559     C
C     0.698019 0.9925599999999999 0.660999     C
C     0.6980199999999999  0.14842 0.992559     C
C     0.6980199999999999 0.9925589999999999  0.14842     C
C      0.69802 0.660999  0.14842     C
C     0.6980200000000001  0.14842 0.660999     C
F     0.7002700000000001 0.09630940000000002 0.607109     F
Cr    0.700679 0.23195900000000008  0.86668    Cr
Cr    0.700679 0.8666800000000001  0.70068    Cr
Cr    0.7006790000000002 0.23195900000000005  0.70068    Cr
Cr    0.7006790000000003 0.7006799999999999 0.231959    Cr
Cr    0.7006799999999997  0.70068  0.86668    Cr
Cr     0.70068 0.8666789999999999 0.231959    Cr
O     0.7006989999999998 0.030279399999999984  0.51478     O
O     0.700699 0.030280699999999994  0.25424     O
O     0.7006990000000001 0.5147799999999999 0.0302795     O
O     0.7006999999999999 0.254241 0.0302795     O
O     0.7006999999999999  0.51478  0.25424     O
O     0.700701 0.254239  0.51478     O
O     0.7039689999999998 0.19610899999999998 0.7039699999999999     O
O     0.7039689999999998 0.19611000000000006 0.8959499999999999     O
O     0.703969  0.70397  0.19611     O
O     0.7039690000000002 0.895949  0.19611     O
O     0.7039699999999998  0.89595 0.7039699999999999     O
O      0.70397 0.7039689999999998 0.8959499999999999     O
H     0.7049506390343989 0.12927783589420128 0.7915878668665074     H
H     0.7049515453488275 0.874180401426733 0.1292844341852772     H
H     0.7049519641365208 0.7915855753835327 0.12928241151414757     H
H     0.7049522146408909 0.12927908419834355 0.8741783589356967     H
H     0.7049531030011065 0.7915884054712761 0.8741784964688417     H
H     0.7049532808289736 0.8741784480300776 0.7915876529901689     H
H     0.7054109999999999 0.5336249999999999 0.216393     H
H     0.705411 0.0445705 0.216393     H
H     0.705411 0.21639199999999997 0.533626     H
H     0.705411 0.216392 0.0445715     H
H     0.7054119999999999 0.533625 0.0445715     H
H     0.705412 0.0445701 0.533626     H
F      0.70642 0.7064189999999999  0.83144     F
C     0.7073389999999998 0.9542989999999999 0.547601     C
C     0.7073389999999999 0.5475999999999999 0.954299     C
C     0.7073390000000003  0.29076 0.547601     C
C      0.70734   0.9543  0.29076     C
C     0.7073400000000001 0.5476000000000001  0.29076     C
C     0.7073410000000002 0.29075999999999996 0.954299     C
O     0.7076789999999997 0.24480000000000002  0.66278     O
O     0.7076799999999999 0.24480000000000007 0.8847389999999999     O
O     0.7076799999999999 0.662779 0.244799     O
O      0.70768 0.8847390000000002  0.66278     O
O     0.7076800000000001 0.662779 0.8847389999999999     O
O     0.7076800000000001 0.8847390000000002 0.244799     O
O     0.7084289999999998  0.14377 0.903309     O
O     0.7084289999999998 0.14377000000000004  0.74449     O
O     0.7084289999999999  0.74449 0.143769     O
O     0.7084289999999999  0.90331 0.143769     O
O     0.7084299999999999 0.903309  0.74449     O
O     0.7084300000000001 0.744489 0.903309     O
C     0.709239 0.04569969999999998   0.4524     C
C     0.709239 0.04570010000000001 0.292661     C
C     0.7092390000000001 0.45239999999999997 0.292661     C
C      0.70924 0.292659   0.0457     C
C     0.7092400000000001 0.2926599999999999   0.4524     C
C     0.7092400000000001 0.452399   0.0457     C
C     0.709629 0.302709 0.40884999999999994     C
C     0.7096290000000001 0.07881030000000003 0.40884999999999994     C
C     0.7096299999999998 0.408849  0.30271     C
C      0.70963 0.07881059999999998  0.30271     C
C      0.70963 0.30271000000000003 0.0788095     C
C      0.70963 0.4088490000000001 0.0788095     C
N     0.7096760264324296 0.8899008239031448 0.11413814382184582     N
N     0.7096762052751828 0.7862856498169495 0.1141371003513879     N
N     0.7096766458728275 0.11413240489554982 0.7862871936720568     N
N     0.7096771462163047 0.11413363276574845 0.8898989595673799     N
N     0.709678115637152 0.7862882749072756 0.8898990607980225     N
N     0.7096781452577974 0.8898990094354142 0.78628783070699     N
C     0.7116389999999999  0.57186 0.278579     C
C     0.7116389999999999 0.9379199999999999  0.57186     C
C     0.7116390000000001  0.57186 0.937919     C
C     0.7116390000000002 0.27858000000000005  0.57186     C
C     0.7116399999999999  0.93792 0.278579     C
C      0.71164 0.27857899999999997 0.937919     C
O     0.7125589999999999 0.169219  0.94354     O
O     0.712559 0.16922000000000006 0.674679     O
O     0.7125590000000002 0.674679  0.94354     O
O     0.7125590000000002  0.67468 0.169219     O
O     0.7125590000000002 0.9435390000000001 0.674679     O
O      0.71256 0.943539 0.169219     O
C     0.7146389999999999 0.24922099999999997  0.62114     C
C     0.714639 0.24922099999999997 0.914999     C
C     0.714639 0.621139  0.24922     C
C     0.714639 0.9149999999999999  0.24922     C
C     0.7146399999999997  0.62114 0.914999     C
C      0.71464 0.9149989999999998  0.62114     C
H     0.7150439999999999 0.649391 0.154074     H
H     0.7150439999999999 0.9814910000000001 0.154074     H
H     0.715044 0.15407399999999993 0.649391     H
H     0.7150440000000001 0.15407399999999993 0.981491     H
H     0.7150440000000001 0.981491 0.649391     H
H     0.7150440000000003  0.64939 0.981491     H
Cr    0.7158989999999998 6.477599999998862e-07      0.5    Cr
Cr    0.7158989999999998 0.28409900000000005      0.5    Cr
Cr    0.7158989999999998      0.5      0.0    Cr
Cr    0.715899 0.499999 0.284101    Cr
Cr      0.7159 4.214550000103401e-07 0.284101    Cr
Cr    0.7159000000000001   0.2841      0.0    Cr
O     0.7160280000000001 0.4864509999999999  0.33839     O
O     0.7160289999999999 0.33838899999999994 0.9591299999999999     O
O     0.7160299999999998 0.33838899999999994 0.486449     O
O     0.7160299999999998 0.48645000000000016 0.9591299999999999     O
O     0.7160299999999999 0.9591290000000001  0.33839     O
O     0.7160299999999999 0.9591299999999999 0.486449     O
C     0.716499 0.6460999999999999 0.903179     C
C     0.7164999999999999 0.903179 0.646099     C
C       0.7165 0.903179  0.23422     C
C     0.7165000000000001 0.2342200000000001 0.903179     C
C     0.7165000000000001   0.6461  0.23422     C
C     0.716501 0.23421999999999998 0.646099     C
H     0.7171229999999998 0.10035699999999999  0.31447     H
H     0.717123 0.314471 0.100356     H
H     0.7171240000000001 0.31447100000000006 0.368048     H
H     0.7171240000000002 0.368048  0.31447     H
H     0.7171249999999999 0.100357 0.368048     H
H     0.717125 0.36804800000000004 0.100356     H
O     0.7183389999999998 0.27489999999999987 0.972159     O
O     0.718339   0.5346   0.2749     O
O     0.718339 0.9721590000000001   0.2749     O
O      0.71834   0.2749 0.534599     O
O      0.71834   0.5346 0.972159     O
O     0.7183409999999997 0.972159 0.534599     O
H     0.7214075914100351 0.9219732553927256 0.46961741789305883     H
H     0.7214084516659558 0.9219715081102132 0.3869972662324219     H
H     0.7214087059892662 0.4696147295797285 0.921972280956056     H
H     0.7214087391499286 0.3869999792983061 0.46961722631872294     H
H     0.7214088296715713 0.4696242959100112 0.3869961753225145     H
H     0.7214091397142539 0.38700002093810953 0.921972800207975     H
C     0.7214189999999998 0.06208029999999999 0.288359     C
C     0.7214189999999999 0.288361 0.0620793     C
C     0.7214199999999998  0.42814 0.0620793     C
C      0.72142 0.062079400000000035 0.42813899999999994     C
C      0.72142  0.42814 0.288359     C
C     0.7214200000000001 0.28836000000000006 0.42813899999999994     C
C     0.7248989999999998 0.08921950000000001 0.38368099999999994     C
C     0.724899   0.3022 0.38368099999999994     C
C     0.7248999999999999  0.38368 0.302199     C
C       0.7249  0.38368 0.089219     C
C     0.7249000000000001 0.08921959999999998 0.302199     C
C     0.7249000000000001 0.302201 0.089219     C
O     0.7250999999999999 0.02784020000000001 0.281661     O
O     0.7250999999999999 0.2816600000000001   0.4654     O
O       0.7251 0.027840400000000015   0.4654     O
O       0.7251   0.4654 0.281661     O
O     0.725101  0.28166 0.0278394     O
O     0.725101   0.4654 0.0278394     O
C     0.7252889999999999  0.25129  0.57787     C
C      0.72529  0.25129 0.9455499999999999     C
C      0.72529  0.57787 0.251289     C
C      0.72529  0.57787 0.9455499999999999     C
C      0.72529 0.9455500000000001 0.251289     C
C     0.7252900000000001 0.945549  0.57787     C
H     0.7263443001114824 0.44102711531678795 0.38368243427142135     H
H     0.726346199626253 0.948946196251582 0.38368218162690754     H
H     0.7263470803151371 0.9489472618711323 0.4410198180970689     H
H     0.7263479325752445 0.38368359572253596 0.4410200096714048     H
H     0.7263489816384381 0.44101725818496446 0.9489461801603358     H
H     0.7263491226309757 0.3836838092866403 0.9489466523402882     H
C     0.7266989999999997 0.9339400000000001  0.23638     C
C     0.7266989999999998 0.23637999999999998  0.93394     C
C       0.7267 0.23638100000000004 0.602979     C
C     0.7267000000000001 0.6029800000000001  0.93394     C
C     0.7267009999999998 0.6029790000000002  0.23638     C
C     0.726701 0.933939 0.602979     C
O     0.7278390000000001   0.2104 0.6506999999999998     O
O     0.7278399999999999   0.6507   0.2104     O
O      0.72784 0.21039999999999998  0.91106     O
O     0.7278400000000002 0.911059 0.6506999999999998     O
O     0.7278400000000003 0.6506990000000001  0.91106     O
O     0.727841 0.911059   0.2104     O
N     0.732741777539845 0.4555969755272442 0.37839080985175455     N
N     0.7327420706298248 0.9332717761439482 0.45559126075830064     N
N     0.7327423330114415 0.9332704793701793 0.378391115885152     N
N     0.732743070629825 0.3783928924679265 0.45559126075830064     N
N     0.7327431716736064 0.45558934473949103 0.9332710254869366     N
N     0.7327436513323853 0.3783927157963372 0.9332713874382549     N
C     0.7333590000000001  0.73336 0.134919     C
C     0.7333590000000001  0.89836 0.134919     C
C     0.7333590000000002 0.13491999999999993 0.898359     C
C     0.7333599999999999 0.898361 0.733359     C
C      0.73336 0.13491899999999998 0.733359     C
C     0.733361 0.733359 0.898359     C
H     0.7343989999999998 0.9599470000000001   0.5635     H
H     0.7343989999999998 0.959948 0.242153     H
H     0.734399 0.24215199999999998   0.5635     H
H     0.734399 0.563499 0.242153     H
H     0.7343999999999999 0.563499 0.9599469999999999     H
H     0.7344000000000002 0.24215199999999992 0.9599469999999999     H
C     0.7354390000000001 0.7746990000000001 0.101301     C
C     0.7354390000000001  0.88856 0.101301     C
C     0.7354399999999996   0.1013 0.888559     C
C      0.73544 0.10129899999999997 0.774699     C
C     0.7354409999999998 0.774699 0.888559     C
C     0.735441 0.888559 0.774699     C
H     0.7365849999999999 0.9390890000000001  0.21579     H
H     0.736585 0.608535 0.939089     H
H     0.7365859999999997 0.21578899999999995 0.939089     H
H     0.7365859999999999 0.9390890000000002 0.608534     H
H     0.736586 0.608534  0.21579     H
H     0.7365860000000001  0.21579 0.608534     H
Cr    0.7387989999999998 0.17628100000000002   0.9068    Cr
Cr    0.7387990000000001   0.9068 0.17628100000000002    Cr
Cr    0.7387999999999999 0.6781190000000001   0.9068    Cr
Cr      0.7388 0.17627999999999996 0.678119    Cr
Cr      0.7388  0.67812 0.17628100000000002    Cr
Cr      0.7388 0.9067999999999999 0.678119    Cr
C     0.7391899999999998 0.3226490000000001 0.954229     C
C     0.7391899999999998 0.48392899999999994 0.954229     C
C     0.7391899999999998 0.48392999999999997  0.32265     C
C     0.7391899999999999 0.954229  0.32265     C
C     0.7391899999999999 0.954229 0.483929     C
C     0.7391900000000001 0.322649 0.483929     C
O     0.7409089999999998  0.69435 0.8495500000000001     O
O     0.7409089999999999 0.849549  0.69435     O
O     0.740909 0.21518899999999996 0.8495500000000001     O
O     0.740909 0.8495490000000001  0.21519     O
O     0.7409100000000001 0.21519099999999997  0.69435     O
O     0.7409100000000002  0.69435  0.21519     O
H     0.7418479999999997 0.875729 0.0715241     H
H     0.7418480000000001 0.07152390000000003 0.875729     H
H     0.7418489999999999 0.8108960000000001 0.0715241     H
H     0.741849 0.875729 0.810896     H
H     0.7418490000000002 0.07152380000000003 0.810896     H
H     0.7418490000000002 0.810897 0.875729     H
O     0.7444889999999997  0.14377 0.903309     O
O     0.7444889999999998  0.90331 0.143769     O
O     0.7444890000000001 0.9033100000000001 0.7084299999999999     O
O     0.7444899999999999 0.14376900000000006 0.7084299999999999     O
O      0.74449 0.708429 0.143769     O
O     0.7444900000000001 0.708429 0.903309     O
O     0.7457599999999999   0.2993 0.48521899999999996     O
O     0.7457599999999999   0.2993 0.969719     O
O     0.7457599999999999 0.48521900000000007 0.969719     O
O      0.74576 0.48521999999999993 0.299299     O
O      0.74576  0.96972 0.48521899999999996     O
O     0.7457609999999997 0.969719 0.299299     O
H     0.7459845632311275 0.33392576774692256 0.23676206302223285     H
H     0.7459857187636345 0.18332623221518843 0.33392735549910535     H
H     0.7459863159111626 0.18332217164087683 0.2367600513125666     H
C     0.7470179999999998 0.7470200000000001  0.89588     C
C     0.7470189999999999 0.8958800000000001  0.74702     C
C     0.747019 0.11007999999999996  0.89588     C
C     0.747019  0.89588 0.110079     C
C      0.74702 0.11007900000000004  0.74702     C
C     0.7470210000000003  0.74702 0.110079     C
C     0.748709 0.054448999999999984  0.27471     C
C     0.748709  0.05445  0.42213     C
C      0.74871 0.422129  0.27471     C
C     0.7487100000000001 0.274709  0.42213     C
C     0.7487100000000001  0.27471 0.054449     C
C     0.7487100000000001 0.4221289999999999 0.054449     C
F     0.7495400000000001      0.5 0.250459     F
H     0.7499719723907687 0.8034144580807094 0.7002743829603291     H
H     0.7499729195935536 0.7002786131465643 0.803409787867126     H
H     0.7499729432990843 0.24633725052109617 0.7002742222731286     H
H     0.749973783804969 0.7002746772297489 0.24633923455567835     H
H     0.7499737951472489 0.24633512486390852 0.8034097135212253     H
H     0.7499745988611568 0.8034103297953725 0.2463408889639268     H
C     0.7507589999999997 0.790279 0.0791193     C
C     0.7507589999999997  0.87984 0.0791193     C
C     0.750759 0.07911989999999997 0.790279     C
C     0.7507590000000001 0.07912090000000005 0.879839     C
C     0.7507600000000001 0.879839 0.790279     C
C     0.7507600000000002 0.7902790000000001 0.879839     C
C      0.75078 0.0849994 0.378861     C
C      0.75078 0.08499999999999998  0.28536     C
C      0.75078  0.28536 0.08499949999999999     C
C      0.75078 0.37885899999999995  0.28536     C
C     0.7507800000000001 0.28536000000000006 0.378861     C
C     0.750781 0.37885899999999995 0.08499949999999999     C
H     0.7536595527387342 0.19658810186139672 0.2500257329799827     H
H     0.7536605740166217 0.29972059244695975 0.25002441127234243     H
H     0.7536615645698036 0.19659088730301905 0.299722199517275     H
O     0.7551990000000001 0.2923200000000001 0.11525999999999999     O
O     0.7551999999999999 0.11525900000000003 0.33722099999999994     O
O     0.7552000000000001 0.115259  0.29232     O
O     0.7552000000000001  0.29232 0.33722099999999994     O
O     0.7552000000000001  0.33722  0.29232     O
O     0.7552000000000002 0.33721999999999996 0.11525999999999999     O
C     0.756729 0.4563289999999999  0.92735     C
C     0.756729  0.92735 0.456329     C
C     0.7567299999999998 0.927349 0.359589     C
C     0.7567299999999999 0.35958900000000005  0.92735     C
C     0.7567299999999999 0.45633099999999993 0.359589     C
C      0.75673 0.3595900000000001 0.456329     C
H     0.757848 0.43650000000000005 0.0400518     H
H     0.7578480000000001 0.04005160000000002   0.4365     H
H     0.7578480000000001 0.04005170000000001 0.265599     H
H     0.7578480000000001 0.2655989999999999   0.4365     H
H     0.7578480000000001 0.265599 0.0400518     H
H     0.7578480000000001 0.43649999999999994 0.265599     H
N     0.758132716772988 0.3158452267374491 0.23555347474246383     N
N     0.7581329837928195 0.19046375064368715 0.2355532228369624     N
N     0.7581337701058585 0.19046651982410748 0.3158463931012182     N
C     0.759829  0.33209  0.93799     C
C     0.759829 0.4700899999999999  0.93799     C
C     0.759829 0.937989 0.33209099999999997     C
C     0.7598290000000001 0.9379900000000001 0.470089     C
C      0.75983 0.470089 0.33209099999999997     C
C     0.7598309999999999  0.33209 0.470089     C
F     0.7601900000000001 0.8618490000000001  0.86185     F
C     0.7630289999999998 0.8516899999999998 0.19630999999999998     C
C     0.763029 0.19631000000000004  0.85169     C
C     0.763029 0.19631000000000007 0.688969     C
C     0.763029  0.85169 0.688969     C
C     0.7630290000000001 0.688969 0.19630999999999998     C
C     0.7630290000000002 0.688969  0.85169     C
H     0.7632359799814015 0.2540120691281104 0.8166758696296355     H
H     0.763235989725326 0.666073348878357 0.8166752160876403     H
H     0.7632377282787691 0.8166804625325904 0.6660695540701701     H
H     0.7632388584335417 0.2540102398035492 0.66606940272176     H
H     0.7632389947233026 0.6660696696200886 0.25401382032867237     H
H     0.7632397180140383 0.8166775588140046 0.2540132911437552     H
H      0.76337 0.230937 0.315232     H
H     0.7633700000000001 0.23093900000000003 0.190459     H
H     0.7633700000000001 0.31523200000000007 0.190459     H
C     0.763619 0.06606030000000002 0.273299     C
C     0.7636190000000002   0.2733 0.0660591     C
C     0.7636190000000003 0.0660599 0.397019     C
C     0.7636199999999999 0.39701900000000007 0.273299     C
C      0.76362   0.2733 0.397019     C
C      0.76362 0.397019 0.0660591     C
N     0.7644445700687974 0.6841538908979871 0.8095342554120576     N
N     0.7644448589745927 0.8095381456207285 0.6841509611381185     N
N     0.7644451559993488 0.24186394383835602 0.8095344668646     N
N     0.764445895870641 0.24186405202328318 0.684150847220356     N
N     0.7644462524785752 0.6841508409134328 0.24186662321174698     N
N     0.7644468140972934 0.8095353085399314 0.24186703400756646     N
H     0.7645721691693941 0.8609411804436142 0.963715564951223     H
H     0.7645725396455998 0.9637116172126812 0.8609454910549532     H
H     0.7645741142990892 0.91076631982832 0.9637150770898674     H
C     0.765779 0.0968196   0.2835     C
C     0.765779 0.0968201   0.3539     C
C     0.765779   0.2835 0.0968201     C
C     0.7657799999999999 0.3538990000000001   0.2835     C
C      0.76578   0.3539 0.0968201     C
C     0.7657800000000001   0.2835   0.3539     C
F     0.7662889999999998  0.15625  0.92201     F
F     0.7662889999999999  0.92201 0.15625099999999997     F
F     0.766289 0.9220089999999999  0.65545     F
O     0.7677389999999997 0.18394099999999997   0.6747     O
O     0.767739 0.873619  0.18394     O
O     0.767739 0.8736199999999998   0.6747     O
O     0.7677390000000001 0.18393899999999996  0.87362     O
O      0.76774 0.674699  0.87362     O
O     0.7677400000000001 0.6746990000000002  0.18394     O
Cr    0.7680399999999997 0.29931899999999995  0.29932    Cr
Cr     0.76804 0.13332099999999997  0.29932    Cr
Cr     0.76804 0.29931899999999995 0.133321    Cr
C     0.774699 0.7354399999999999 0.888559     C
C     0.7746990000000001  0.88856 0.101301     C
C     0.7746990000000001 0.8885609999999998 0.735439     C
C     0.7746999999999999   0.1013 0.888559     C
C       0.7747 0.735439 0.101301     C
C     0.774701 0.10129899999999997 0.735439     C
H     0.776896 0.38688600000000006 0.438619     H
H     0.7768969999999997 0.386886 0.897597     H
H     0.7768969999999997 0.8975980000000002 0.438619     H
H     0.776897 0.4386189999999999 0.386885     H
H     0.776897 0.8975970000000002 0.386885     H
H     0.7768970000000002 0.43862000000000007 0.897597     H
C     0.7778489999999999 0.06751040000000003 0.777849     C
C     0.7778489999999999  0.77785 0.0675092     C
C     0.7778490000000002 0.8767899999999998 0.0675092     C
C     0.7778490000000003 0.06751010000000002 0.876789     C
C      0.77785 0.876791 0.777849     C
C     0.7778510000000002 0.7778490000000001 0.876789     C
C     0.778988 0.4433500000000001  0.91045     C
C     0.7789889999999999 0.36720900000000006  0.91045     C
C     0.7789899999999997 0.9104490000000002  0.36721     C
C     0.7789899999999998 0.9104490000000001 0.443349     C
C     0.7789900000000001 0.36721000000000004 0.443349     C
C     0.7789900000000001 0.44334899999999994  0.36721     C
C     0.780619 0.19184000000000007  0.21434     C
C     0.780619 0.31319899999999995  0.21434     C
C     0.7806200000000001 0.19184100000000004 0.31319899999999995     C
C     0.7806200000000001  0.21434 0.191839     C
C     0.7806200000000001 0.21434000000000003 0.31319899999999995     C
C     0.7806200000000001 0.31320099999999995 0.191839     C
N     0.7828379809845436 0.8605193542645768 0.9506755575846332     N
N     0.7828388962983486 0.9506722192366894 0.8605219414506707     N
N     0.7828400538846764 0.9059631516711638 0.9506749776648695     N
C     0.783139 0.31358000000000014 0.9413399999999998     C
C     0.7831399999999997 0.941339 0.313579     C
C     0.7831400000000001 0.46193900000000004 0.313579     C
C     0.7831400000000001 0.9413389999999999  0.46194     C
C     0.7831400000000002 0.31357899999999994  0.46194     C
C     0.7831400000000002 0.46193999999999996 0.9413399999999998     C
H     0.7836069999999998 0.955429 0.294588     H
H     0.7836069999999999 0.294589 0.466374     H
H     0.7836069999999999 0.2945890000000001 0.955429     H
H     0.7836070000000002 0.46637400000000007 0.955429     H
H     0.7836079999999999 0.9554279999999999 0.466374     H
H     0.783608 0.466373 0.294588     H
H     0.7838659999999997 0.8895330000000004 0.715477     H
H     0.783866 0.11112300000000008 0.715477     H
H     0.7838669999999999 0.7154769999999999 0.889532     H
H     0.7838670000000001 0.7154769999999999 0.111122     H
H     0.7838679999999998 0.11112299999999997 0.889532     H
H     0.783868 0.889533 0.111122     H
H     0.784209 0.263415 0.0609099     H
H     0.784209 0.39146499999999995 0.263414     H
H     0.7842099999999999 0.060910399999999976 0.391465     H
H      0.78421 0.06091010000000001 0.263414     H
H     0.7842100000000001 0.263413 0.391465     H
H     0.784211 0.391465 0.0609099     H
O     0.7844680000000002  0.86079 0.0378105     O
O     0.7844689999999999 0.03780889999999998  0.86079     O
O     0.7844689999999999 0.8169299999999999  0.86079     O
O     0.7844690000000001 0.860789  0.81693     O
O     0.7844699999999998 0.0378096  0.81693     O
O      0.78447  0.81693 0.0378105     O
O     0.7848089999999999  0.25909 0.305651     O
O     0.7848089999999999 0.3056499999999999 0.259089     O
O     0.7848090000000001  0.30565 0.150451     O
O     0.7848099999999999 0.259089 0.150451     O
O      0.78481 0.150449 0.305651     O
O      0.78481  0.15045 0.259089     O
C     0.7855089999999998 0.829208 0.689591     C
C     0.7855089999999999 0.19569099999999995 0.829209     C
C     0.7855089999999999 0.829208 0.195691     C
C      0.78551 0.6895889999999999 0.829209     C
C     0.7855100000000002  0.19569 0.689591     C
C     0.7855100000000002 0.6895889999999999 0.195691     C
C     0.785659 0.6867999999999999 0.808159     C
C     0.785659 0.8081600000000001   0.6868     C
C     0.7856599999999999 0.219379 0.808159     C
C     0.7856599999999999 0.21937900000000002   0.6868     C
C     0.7856599999999999 0.6867989999999999 0.219381     C
C     0.7856599999999999 0.808159 0.219381     C
H     0.786892 0.8553049999999999 0.908357     H
H     0.786892 0.9494430000000001 0.908357     H
H     0.7868929999999997 0.908356 0.855306     H
H     0.7890626048317473 0.8755973551506613 0.9441440058240769     H
H     0.7890647415194425 0.9441395485225983 0.8755993920490579     H
H     0.7890655985154593 0.8911921825753026 0.9441429052095579     H
O     0.7895989999999999  0.27216 0.0889403     O
O     0.7895989999999999 0.349299 0.0889403     O
O     0.789599 0.0889397 0.34929999999999994     O
O     0.789599 0.0889408 0.272159     O
O       0.7896  0.27216 0.34929999999999994     O
O       0.7896   0.3493 0.272159     O
C     0.7902779999999999 0.07912090000000005 0.879839     C
C     0.7902789999999997 0.879839  0.75076     C
C     0.790279  0.87984 0.0791193     C
C     0.7902790000000001 0.7507590000000001 0.879839     C
C     0.7902799999999999 0.07911989999999997  0.75076     C
C      0.79028 0.7507599999999999 0.0791193     C
C     0.793738 0.04792049999999998   0.8646     C
C     0.793738 0.7937399999999999   0.8646     C
C     0.793739 0.864599 0.0479199     C
C     0.793739 0.8646000000000003 0.793739     C
C     0.7937399999999999 0.793739 0.0479199     C
C     0.7937400000000001 0.047919500000000004 0.793739     C
Cr    0.794109 0.010429999999999995  0.84773    Cr
Cr     0.79411 0.847729 0.0104291    Cr
Cr    0.7941100000000001 0.847729  0.84773    Cr
C     0.7991289999999999 0.9418690000000002  0.83955     C
C     0.7991290000000002 0.8395489999999999 0.9418699999999999     C
C     0.7991299999999999  0.83955 0.9194489999999998     C
C      0.79913 0.9194489999999998  0.83955     C
C     0.7991300000000001 0.919449 0.9418699999999999     C
C     0.799131 0.9418689999999998 0.9194489999999998     C
O     0.8011299999999997 0.838149 0.981489     O
O     0.8011299999999997 0.879229 0.981489     O
O     0.8011299999999998 0.8381500000000001 0.879229     O
O     0.8011299999999998 0.8792300000000001 0.838149     O
O     0.8011299999999998 0.9814900000000001 0.879229     O
O      0.80113 0.9814899999999999 0.838149     O
C     0.8036889999999999 0.23696900000000004 0.148311     C
C     0.803689  0.14831  0.23697     C
C     0.8036899999999999 0.311029  0.23697     C
C      0.80369 0.148309  0.31103     C
C      0.80369 0.23697000000000004  0.31103     C
C      0.80369 0.311029 0.148311     C
O     0.8038889999999999  0.10405 0.296031     O
O     0.8038889999999999  0.29603 0.296031     O
O     0.8038890000000001 0.296029 0.104051     O
C     0.8040790000000001 0.4369200000000001 0.34769999999999995     C
C     0.8040799999999999   0.3477 0.43691899999999995     C
C     0.8040800000000001 0.3476989999999999   0.9113     C
C     0.8040800000000002 0.9112999999999999 0.34769999999999995     C
C     0.8040800000000004 0.436919   0.9113     C
C     0.8040810000000002 0.911299 0.43691899999999995     C
C     0.804308 0.21449000000000001  0.31041     C
C     0.804309  0.17079 0.21449099999999996     C
C     0.804309  0.31041  0.17079     C
C     0.8043090000000002 0.31040900000000005 0.21449099999999996     C
C     0.8043090000000003  0.17079  0.31041     C
C      0.80431 0.214489  0.17079     C
C     0.8062089999999997  0.32079  0.92543     C
C     0.8062089999999997 0.4475699999999999  0.92543     C
C     0.8062089999999997 0.9254290000000001 0.447571     C
C     0.806209 0.320789 0.447571     C
C     0.806209  0.44757 0.320791     C
C     0.8062099999999999  0.92543 0.320791     C
C     0.8081599999999999 0.21937999999999996 0.7856599999999999     C
C     0.8081599999999999 0.6867989999999999 0.7856599999999999     C
C      0.80816 0.7856599999999999 0.219381     C
C     0.8081600000000001 0.21937900000000002   0.6868     C
C     0.8081600000000001 0.6867989999999999 0.219381     C
C     0.8081600000000001 0.7856600000000001   0.6868     C
H     0.8095379999999999 0.684769 0.769063     H
H     0.8095379999999999 0.769062 0.684769     H
H     0.809539 0.23662899999999992 0.769063     H
H     0.809539 0.23662899999999995 0.684769     H
H     0.8095390000000002 0.684769 0.236629     H
H     0.8095390000000002 0.769062 0.236629     H
C     0.8101499999999998 0.832669  0.17721     C
C     0.8101499999999999 0.17721000000000003  0.67997     C
C     0.8101499999999999 0.8326689999999999  0.67997     C
C     0.8101500000000001 0.177209  0.83267     C
C     0.8101500000000001  0.67997  0.83267     C
C     0.8101509999999998 0.679969  0.17721     C
H     0.8108959999999997 0.875729 0.0715241     H
H     0.810896 0.07152439999999999 0.741849     H
H     0.8108969999999996 0.7418490000000001 0.0715241     H
H     0.8108969999999996 0.8757290000000001 0.741849     H
H     0.8108969999999998 0.07152390000000003 0.875729     H
H     0.8108969999999998 0.7418480000000001 0.875729     H
H     0.810905 0.673187 0.164181     H
H     0.8109059999999999 0.16418099999999997 0.851723     H
H     0.8109059999999999 0.16418100000000002 0.673188     H
H     0.8109060000000001 0.851723 0.164181     H
H     0.8109060000000001 0.8517249999999998 0.673188     H
H     0.810907 0.673187 0.851723     H
O     0.816058  0.23226  0.12638     O
O     0.8160590000000001  0.12638 0.232259     O
O     0.8160599999999998 0.32530000000000003  0.12638     O
O     0.8160599999999999 0.232259   0.3253     O
O     0.8160599999999999   0.3253 0.232259     O
O      0.81606  0.12638   0.3253     O
C     0.8161389999999996  0.81614  0.89069     C
C     0.8161389999999998 0.8161390000000001  0.97703     C
C     0.8161399999999998 0.9770299999999997  0.89069     C
C     0.8161399999999999  0.89069 0.816139     C
C     0.8161399999999999 0.9770299999999998 0.816139     C
C      0.81614 0.890689  0.97703     C
C     0.8167990000000002  0.91166 0.8167989999999999     C
C       0.8168   0.8168 0.9547389999999999     C
C     0.8168000000000001 0.8167999999999999 0.9116589999999999     C
C     0.8168000000000001 0.9547389999999999 0.8167989999999999     C
C     0.816801 0.9547390000000001 0.9116589999999999     C
C     0.8168010000000001 0.911659 0.9547389999999999     C
O     0.8169289999999998  0.78447  0.86079     O
O     0.816929 0.03780889999999998  0.86079     O
O     0.8169290000000002 0.860789 0.7844689999999999     O
O     0.8169290000000002  0.86079 0.0378105     O
O     0.8169299999999999 0.03781040000000008 0.7844689999999999     O
O     0.8169299999999999  0.78447 0.0378105     O
C     0.822789 0.189851  0.32003     C
C     0.8227890000000001 0.16732999999999998  0.32003     C
C     0.8227890000000001 0.320029 0.167331     C
C     0.8227890000000001 0.32003099999999995 0.189849     C
C     0.8227899999999999 0.189849 0.167331     C
C     0.8227900000000001  0.16733 0.189849     C
Cr    0.823718  0.32188 0.0932008    Cr
Cr    0.823719 0.0931993  0.32188    Cr
Cr    0.8237190000000001 0.321881   0.2612    Cr
Cr     0.82372 0.09320029999999999   0.2612    Cr
Cr     0.82372 0.261199 0.0932008    Cr
Cr     0.82372 0.261199  0.32188    Cr
H     0.8249967468987204 0.2818346812254066 0.030483796321039643     H
H     0.8249973793525545 0.03048767778126711 0.2818349047164058     H
H     0.8249973954782149 0.28183390118234175 0.36268071179971234     H
H     0.8249979999999998 0.924122 0.444811     H
H     0.8249979999999999 0.4448110000000001 0.924123     H
H     0.8249979999999999 0.9241230000000001 0.306068     H
H     0.8249989999999999 0.44481099999999996 0.306068     H
H     0.824999 0.306066 0.924123     H
H     0.8249990000000001 0.306068 0.444811     H
O     0.8276189999999999 0.42133999999999994 0.37615899999999997     O
O     0.8276190000000001 0.37616000000000005 0.421339     O
O     0.8276190000000001 0.3761609999999999 0.874879     O
O     0.8276199999999998 0.874879 0.37615899999999997     O
O      0.82762  0.42134 0.874879     O
O      0.82762  0.87488 0.421339     O
C     0.8279189999999998  0.89268   0.3535     C
C     0.8279190000000002 0.42590000000000006   0.3535     C
C     0.8279199999999999 0.353501   0.4259     C
C      0.82792   0.3535 0.892679     C
C      0.82792 0.8926789999999999   0.4259     C
C     0.8279200000000002 0.4259009999999999 0.892679     C
O     0.829155 0.012531000000000014 0.8291559999999999     O
O     0.829155 0.8291569999999999 0.0125301     O
O     0.829157 0.8291559999999999 0.8291559999999999     O
C     0.8292089999999998 0.7855099999999999 0.195691     C
C      0.82921  0.19569 0.689591     C
C      0.82921 0.6895889999999999 0.195691     C
C      0.82921 0.6895889999999999  0.78551     C
C      0.82921 0.7855080000000001 0.689591     C
C     0.8292100000000002 0.19568900000000006  0.78551     C
O     0.8307789999999999 0.0564597  0.32532     O
O     0.8307789999999999 0.287441 0.05646040000000001     O
O     0.8307789999999999 0.325319 0.05646040000000001     O
O     0.830779 0.28744100000000006  0.32532     O
O     0.8307790000000002 0.056461 0.287439     O
O     0.8307800000000001 0.32532099999999997 0.287439     O
F      0.83144 0.25572000000000006  0.70642     F
F     0.8314400000000001  0.70642 0.255719     F
F     0.8323689999999999 0.417629 0.41762999999999995     F
C     0.8326680000000002 0.8101499999999999  0.67997     C
C     0.8326689999999999 0.17721000000000003  0.67997     C
C     0.8326690000000001  0.67997 0.810149     C
C      0.83267 0.17720999999999998 0.810149     C
C      0.83267 0.679969  0.17721     C
C     0.832671 0.810149  0.17721     C
H     0.8358169999999998 0.326812 0.148275     H
H     0.835817 0.14827599999999996 0.3268130000000001     H
H     0.8358179999999997 0.14827500000000002 0.18909299999999998     H
H     0.8358179999999997 0.189093 0.148275     H
H     0.8358189999999999 0.189093 0.3268130000000001     H
H     0.8358190000000001 0.326811 0.18909299999999998     H
O     0.8381489999999996 0.8011300000000001 0.981489     O
O     0.8381489999999997 0.981489 0.8011289999999999     O
O     0.8381489999999997 0.9814900000000001 0.879229     O
O     0.838149 0.879229 0.981489     O
O     0.8381490000000001 0.8011290000000001 0.879229     O
O     0.8381499999999998 0.8792289999999999 0.8011289999999999     O
C     0.8395489999999999 0.9418700000000002  0.79913     C
C     0.8395490000000001 0.799129 0.9418699999999999     C
C     0.8395499999999998 0.7991300000000001 0.9194489999999998     C
C     0.8395499999999998 0.919449 0.9418699999999999     C
C     0.8395500000000002 0.9194499999999999  0.79913     C
C     0.8395509999999999 0.9418689999999998 0.9194489999999998     C
C       0.8415 0.04790000000000001   0.3053     C
C     0.8415000000000001 0.305299 0.047900399999999996     C
C     0.841501 0.30529900000000004   0.3053     C
F     0.843748 0.23370999999999997 0.34455099999999994     F
F     0.8437489999999999 0.0779908  0.23371     F
F     0.8437490000000001  0.34455 0.0779909     F
N     0.8442578929278225 0.2800206571054717 0.022236867618704186     N
N     0.8442584497803373 0.28002033835071444 0.35348098515806575     N
N     0.8442584509607411 0.022239393129029075 0.2800213421618535     N
H     0.845925 0.350609 0.284956     H
H     0.845927 0.0185086 0.350608     H
H     0.845927 0.350609 0.0185076     H
Cr    0.847729 0.7941099999999999  0.84773    Cr
Cr    0.847729  0.79411 0.0104291    Cr
Cr    0.8477290000000001 0.010429999999999995 0.794109    Cr
Cr    0.8477290000000001 0.8477289999999998 0.794109    Cr
Cr    0.8477300000000001 0.010429999999999995  0.84773    Cr
Cr    0.8477309999999999 0.847729 0.0104291    Cr
O     0.8495489999999999  0.21519 0.740909     O
O     0.8495489999999999 0.740909  0.21519     O
O     0.849549 0.21519099999999997  0.69435     O
O     0.8495490000000001  0.69435  0.21519     O
O      0.84955  0.69435 0.740909     O
O     0.8495500000000004 0.740909  0.69435     O
O     0.8496789999999999 0.3364599999999999  0.89616     O
O     0.8496789999999999  0.33646   0.4177     O
O     0.8496790000000001 0.41769900000000004  0.33646     O
O     0.8496790000000001 0.8961589999999999  0.33646     O
O     0.8496790000000001 0.8961600000000001   0.4177     O
O     0.8496799999999998 0.417699  0.89616     O
C     0.8515789999999996 0.339001 0.0074393     C
C     0.851579 0.007439650000000006 0.301981     C
C     0.851579 0.338999 0.301981     C
C     0.8515790000000001 0.007440769999999999    0.339     C
C     0.8515790000000001  0.30198 0.0074393     C
C     0.8515790000000002  0.30198    0.339     C
C     0.8516889999999998 0.19631000000000007 0.688969     C
C     0.8516889999999999 0.19630999999999998 0.763031     C
C     0.8516889999999999 0.6889699999999999 0.763031     C
C     0.851689 0.688969 0.19630999999999998     C
C      0.85169 0.7630289999999998 0.19630999999999998     C
C      0.85169 0.763029 0.688969     C
H     0.8517229999999998 0.164182 0.810906     H
H     0.8517229999999998 0.810906 0.164181     H
H     0.851723 0.673187 0.164181     H
H     0.8517239999999999 0.16418100000000002 0.673188     H
H     0.8517239999999999 0.6731880000000001 0.810906     H
H     0.8517239999999999 0.8109060000000001 0.673188     H
C     0.8541099999999999 0.31274900000000005 0.020390399999999996     C
C      0.85411 0.020389800000000013 0.31274899999999994     C
C     0.8541100000000001  0.31275 0.31274899999999994     C
Cr    0.8542090000000001  0.39579 0.3957899999999999    Cr
Cr    0.8542100000000004 0.39579000000000003  0.85421    Cr
Cr    0.8542109999999999 0.8542089999999999 0.3957899999999999    Cr
H     0.8553059999999999 0.949444 0.786892     H
H     0.8553060000000001 0.7868919999999999 0.949444     H
H     0.8553060000000001 0.9083570000000001 0.786892     H
H     0.8553069999999998 0.9083559999999999 0.949444     H
H     0.8553069999999999  0.78689 0.908357     H
H     0.8553069999999999 0.9494430000000001 0.908357     H
H     0.8561125578747907 0.7390974727286682 0.828940586919927     H
H     0.8561148505167799 0.0758461408861694 0.7390955818580922     H
H     0.8561193139795553 0.739094284076648 0.07584194623021195     H
O     0.8562289999999999 0.255511 0.291569     O
O     0.8562299999999999 0.0966904 0.255509     O
O     0.8562299999999999 0.29156899999999997 0.255509     O
O     0.8562300000000002 0.09668960000000003 0.291569     O
O     0.8562300000000002  0.25551 0.0966895     O
O     0.8562300000000002  0.29157 0.0966895     O
C     0.8564079999999998 0.9796099999999999 0.313291     C
C     0.8564089999999998 0.31329000000000007  0.97961     C
C     0.856409 0.3132910000000001  0.35069     C
C     0.856409 0.35068999999999995  0.97961     C
C     0.856409 0.979609  0.35069     C
C     0.8564100000000001 0.35068900000000003 0.313291     C
C     0.857919  0.33816  0.33816     C
C     0.8579199999999997 0.9657600000000001  0.33816     C
C     0.8579200000000002 0.3381609999999999 0.965759     C
H     0.8581077859035763 0.261975814324364 0.024927271504106407     H
H     0.8581086626157512 0.2619757212565711 0.35498459537238136     H
H     0.858108681974693 0.02493004905042115 0.2619767281617148     H
H     0.8588879999999999  0.30238 0.369369     H
H     0.8588879999999999 0.302382 0.969361     H
H     0.8588879999999999 0.36936899999999995  0.30238     H
H     0.8588879999999999 0.9693610000000001  0.30238     H
H     0.858889 0.369369 0.969361     H
H     0.858889 0.9693609999999999 0.369369     H
O     0.8607889999999998 0.03781040000000008 0.7844689999999999     O
O     0.860789  0.81693 0.0378105     O
O     0.8607890000000002  0.78447 0.0378105     O
O     0.8607899999999999 0.0378096  0.81693     O
O     0.8607900000000002 0.7844690000000001  0.81693     O
O     0.8607900000000004 0.816929 0.7844689999999999     O
F     0.8618490000000001 0.7601899999999999 0.0161104     F
F     0.8618490000000003 0.016110199999999963 0.760189     F
C     0.8645989999999999 0.793739 0.0479199     C
C     0.8645990000000001 0.047919500000000004 0.793739     C
C     0.864601 0.7937390000000002 0.793739     C
C     0.8650789999999998  0.26664 0.10163999999999998     C
C     0.8650789999999999 0.266639  0.26664     C
C     0.8650790000000002 0.10163999999999998  0.26664     C
Cr    0.866679 0.23195900000000005  0.70068    Cr
Cr    0.866679 0.7006790000000002  0.70068    Cr
Cr    0.866679 0.7006799999999999 0.231959    Cr
C     0.8701289999999998 0.346391 0.937089     C
C     0.8701289999999999 0.9370889999999998 0.34639099999999995     C
C     0.8701300000000001 0.34639000000000003 0.34639099999999995     C
H     0.8707171686409915 0.12582076934306968 0.20841400456556264     H
H     0.8707200585694661 0.20841078446842912 0.12581875022030525     H
H     0.8707208335350123 0.20841049162271075 0.29504918759153653     H
O     0.8727289999999998 0.3683900000000001  0.92405     O
O     0.8727289999999998  0.92405 0.368391     O
O     0.872729  0.33483 0.368391     O
O     0.8727299999999997 0.33482900000000004  0.92405     O
O     0.8727299999999998 0.9240499999999999 0.33482900000000004     O
O     0.872731 0.36838899999999997 0.33482900000000004     O
O     0.8736189999999999 0.18394099999999997   0.6747     O
O     0.8736190000000001 0.6746989999999999 0.767739     O
O     0.8736190000000001 0.7677400000000001   0.6747     O
O     0.8736200000000001 0.6746990000000002  0.18394     O
O     0.8736200000000002 0.7677390000000001  0.18394     O
O     0.8736200000000003 0.18393999999999988 0.767739     O
N     0.8744451000433119 0.7395709616269502 0.8169109650602593     N
N     0.8744467781802252 0.06906988629055122 0.7395704979059953     N
N     0.8744507110307379 0.7395697138533441 0.06906753442705538     N
O     0.8748779999999998 0.3761600000000001  0.82762     O
O     0.8748789999999997 0.42133999999999994 0.37615899999999997     O
O     0.8748789999999997  0.82762 0.37615899999999997     O
O     0.8748789999999999 0.37616000000000005 0.421339     O
O     0.8748800000000001 0.4213399999999999  0.82762     O
O     0.8748800000000002  0.82762 0.421339     O
H     0.8755972402238628 0.77644514082266 0.45013207582837017     H
H     0.875599590428912 0.7764405304346539 0.3978272351707613     H
H     0.8756010030987232 0.397827358682434 0.4501316332355289     H
H     0.8756013332845329 0.4501304306022417 0.7764382175169426     H
H     0.8756017998141081 0.4501275720668368 0.39782927697010484     H
H     0.8756023618357864 0.3978297595532741 0.7764380766387781     H
H     0.8757289999999996 0.810896 0.741849     H
H     0.8757289999999999 0.8108960000000001 0.0715241     H
H     0.8757290000000002 0.07152380000000003 0.810896     H
O     0.876328 0.37367000000000006 0.373671     O
O     0.8763289999999999  0.87633 0.373671     O
O     0.8763299999999998 0.373671 0.876329     O
C     0.8767889999999999 0.06751040000000003 0.777849     C
C     0.8767889999999999  0.77785 0.0675092     C
H     0.8767908947606126 0.2944336347005898 0.6882744989187178     H
C     0.8767909999999998 0.7778490000000001 0.777849     C
H     0.8767915004707187 0.29443394662583755 0.6404992878788514     H
H     0.8767923722558848 0.6404995373902862 0.2944353940270701     H
H     0.8767928173825332 0.6882726623020421 0.6404991852052915     H
H     0.8767928844401656 0.6404996459692363 0.6882726157510856     H
H     0.8767932320539832 0.6882694232968759 0.2944339291545025     H
O     0.879229 0.8011300000000001 0.981489     O
O     0.8792299999999997 0.838149 0.981489     O
O     0.8792299999999998 0.981489 0.8011289999999999     O
O     0.8792300000000001 0.9814899999999999 0.838149     O
O     0.879231 0.8011290000000001 0.838149     O
O     0.879231 0.8381489999999999 0.8011289999999999     O
C     0.8798389999999998 0.07911989999999997  0.75076     C
C     0.8798389999999998 0.07911989999999997 0.790279     C
C     0.8798389999999998 0.7902799999999999  0.75076     C
C     0.879839 0.7507600000000001 0.790279     C
C     0.8798399999999997 0.790279 0.0791193     C
C     0.8798399999999998 0.7507599999999999 0.0791193     C
O     0.8847379999999998 0.24480000000000002  0.66278     O
O     0.8847389999999999 0.662779 0.244799     O
O     0.884739 0.244801 0.707679     O
O     0.8847400000000001 0.707679 0.244799     O
O     0.8847400000000001 0.7076790000000001  0.66278     O
O     0.8847400000000002 0.662779 0.707679     O
N     0.8858631117853902 0.11010009494014043 0.21371302972538875     N
N     0.885865351004177 0.213711313596116 0.11009827105483534     N
N     0.8858662204324163 0.21371115336409405 0.29032332646273895     N
Cr    0.886179 0.336399 0.391241    Cr
Cr    0.8861790000000002 0.39123899999999995   0.3364    Cr
Cr    0.8861790000000003 0.33640000000000003 0.8861800000000001    Cr
Cr    0.8861799999999997 0.3912389999999999 0.8861800000000001    Cr
Cr    0.8861799999999997 0.8861780000000001 0.391241    Cr
Cr    0.8861799999999999 0.886179   0.3364    Cr
C     0.888559 0.735439 0.101301     C
C     0.8885599999999999 0.10129899999999997 0.735439     C
C     0.8885600000000001 0.735439 0.774699     C
C     0.8885600000000001 0.7746990000000001 0.101301     C
C     0.8885600000000001 0.7746999999999998 0.735439     C
C     0.888561 0.10129899999999997 0.774699     C
H     0.8887908465916724 0.7317742917277604 0.8245658391146968     H
H     0.8887931505855773 0.054865360692297194 0.7317749124061563     H
H     0.8887987205828998 0.7317740625651201 0.05486355676563505     H
H     0.8888769999999998 0.11046799999999998 0.284522     H
H     0.8888769999999999 0.28452299999999997 0.110467     H
H     0.8888769999999999 0.2845230000000001 0.216132     H
H     0.8895309999999996 0.11112299999999997 0.783867     H
H     0.8895309999999998 0.11112300000000008 0.715477     H
H     0.8895309999999998 0.783868 0.715477     H
H     0.889532 0.715476 0.783867     H
H     0.889532 0.783868 0.111122     H
H     0.8895320000000002 0.7154769999999999 0.111122     H
C     0.8899190000000001 0.252981 0.104119     C
C     0.8899199999999997 0.25297900000000006 0.252979     C
C      0.88992 0.104119 0.252979     C
C     0.890689 0.8161390000000001  0.97703     C
C      0.89069 0.9770299999999998 0.816139     C
C     0.8906909999999999 0.8161400000000001 0.816139     C
H     0.8911900368844714 0.9441393174482191 0.875598159145708     H
H     0.8911909058569254 0.7890700113061724 0.8755987710437332     H
H     0.8911915799161105 0.7890656920277426 0.9441425596950866     H
H     0.8915216592929032 0.09338905592774982 0.21044777250832797     H
H     0.8915249028767586 0.21044629190354086 0.09338681832120029     H
H     0.8915257702581277 0.21044688498328573 0.3046399240237924     H
C     0.8926789999999998   0.4259  0.82792     C
C     0.8926789999999999 0.353501   0.4259     C
C     0.8926789999999999 0.42590000000000006   0.3535     C
C     0.8926789999999999 0.827919   0.4259     C
C     0.892679 0.35349900000000006  0.82792     C
C     0.8926790000000003  0.82792   0.3535     C
N     0.8938411655384031 0.7763462079752745 0.43722116563071994     N
N     0.8938435458440549 0.7763424825204893 0.3925915536171792     N
N     0.8938447490797031 0.3925917374200062 0.4372210832988927     N
N     0.893845256580136 0.43722033505304375 0.7763405111487052     N
N     0.893846079489489 0.4372184224078558 0.39259206938081226     N
N     0.8938465308972156 0.392592314835292 0.7763405651887547     N
C     0.8958790000000002  0.74702  0.74702     C
C     0.8958799999999999 0.11007900000000004  0.74702     C
C     0.8958800000000001  0.74702 0.110079     C
O     0.8959489999999999 0.19610899999999998 0.7039699999999999     O
O     0.895949  0.70397  0.19611     O
O      0.89595 0.7039689999999998 0.7039699999999999     O
O     0.8961589999999999  0.33646   0.4177     O
O     0.8961589999999999 0.41769900000000004  0.33646     O
O     0.8961590000000001  0.84968  0.33646     O
O     0.8961599999999996 0.41770000000000007 0.849679     O
O     0.8961599999999998  0.33646 0.849679     O
O     0.8961599999999998  0.84968   0.4177     O
N     0.8964619251168832 0.2854796835948673 0.6818234281922139     N
N     0.8964624064428677 0.28547904404716434 0.6362336761315838     N
N     0.8964633104934748 0.6362333970908896 0.2854803670271841     N
N     0.896463789254983 0.6818223221068036 0.6362331436587935     N
N     0.8964638878134417 0.6362333891316785 0.6818223185384745     N
N     0.896464352884915 0.6818201320700176 0.2854796111847404     N
C      0.89836 0.13491899999999998 0.733359     C
C      0.89836  0.73336 0.733359     C
C     0.8983600000000003  0.73336 0.134919     C
C     0.8986989999999999 0.11144000000000003   0.2253     C
C     0.8986989999999999   0.2253 0.111439     C
C     0.8986990000000001 0.11143999999999998  0.26456     C
C     0.8986999999999998 0.2645600000000001   0.2253     C
C       0.8987 0.22529899999999997  0.26456     C
C     0.8987000000000003 0.264561 0.111439     C
H     0.8998097349465468 0.7742924288487447 0.4197809865514282     H
H     0.8998139047091516 0.7742875738605994 0.40611615082412106     H
H     0.89981504872829 0.406116530772366 0.41978120362665555     H
H     0.8998161086523616 0.41978035671696523 0.7742852260642934     H
H     0.89981789617884 0.41977797626772484 0.4061155217686426     H
H     0.8998185706218044 0.40611571151730796 0.7742855149652026     H
C     0.9031789999999997 0.6460999999999999   0.7165     C
C     0.903179   0.6461  0.23422     C
C     0.9031799999999996 0.23421999999999998   0.7165     C
C     0.9031799999999999 0.23421999999999998 0.646099     C
C     0.9031799999999999 0.716499 0.646099     C
C      0.90318 0.7164990000000001  0.23422     C
O     0.9033079999999999 0.14377000000000004  0.74449     O
O     0.9033089999999998 0.7084300000000001  0.74449     O
O     0.9033089999999999 0.14376900000000006 0.7084299999999999     O
O     0.903309 0.708429 0.143769     O
O     0.903309  0.74449 0.143769     O
O     0.9033090000000001 0.7444900000000001 0.7084299999999999     O
F     0.903689 0.9036900000000001 0.39288999999999996     F
F     0.9036890000000002 0.392891 0.903689     F
H     0.9055507696899803 0.2841976725375253 0.6635635869990854     H
H     0.9055514823945274 0.2841963479381346 0.646686868481574     H
H     0.905553086921894 0.6466858546412808 0.2841977852213037     H
H     0.9055532140550298 0.6635623939035509 0.6466855126427077     H
H     0.9055534169618702 0.6466857242610133 0.6635624306803887     H
H     0.9055550823699151 0.6635603732427372 0.2841971797428299     H
N     0.9059610692371196 0.950672289966205 0.8605221099498553     N
N     0.9059617037249434 0.7828421838641266 0.8605225567325403     N
N     0.9059626739845225 0.7828395902983044 0.9506746877246829     N
Cr    0.9067989999999998  0.67812 0.7387989999999999    Cr
Cr    0.906799 0.17628100000000002 0.7387989999999999    Cr
Cr    0.906799   0.7388 0.678119    Cr
Cr    0.9067990000000001 0.738798 0.17628100000000002    Cr
Cr    0.9067990000000002  0.67812 0.17628100000000002    Cr
Cr    0.9068000000000002 0.17627999999999996 0.678119    Cr
H     0.9083560000000002 0.949444 0.786892     H
H     0.9083569999999999 0.855305 0.786892     H
H     0.9083569999999999 0.8553059999999999 0.949444     H
C     0.9104489999999997 0.7789900000000001  0.36721     C
C     0.9104489999999998 0.7789910000000001 0.443349     C
C     0.9104499999999999 0.44334899999999994  0.36721     C
C      0.91045 0.3672100000000001 0.778989     C
C      0.91045 0.44334900000000005 0.778989     C
C     0.9104500000000002 0.36721000000000004 0.443349     C
H     0.9107627614606822 0.9637120420244291 0.8609471854995476     H
H     0.9107636304331359 0.7645755357999124 0.8609477973975735     H
H     0.9107656140414936 0.7645734900936997 0.9637146284203496     H
C     0.9107789999999999   0.2751   0.6978     C
C     0.9107789999999999 0.697799   0.2751     C
C     0.910779 0.27509900000000004  0.61632     C
C     0.9107790000000001  0.61632   0.2751     C
C     0.9107799999999998 0.6163200000000001   0.6978     C
C     0.9107799999999999   0.6978  0.61632     C
O     0.9110589999999997   0.2104 0.6506999999999998     O
O     0.9110589999999998 0.6506990000000001  0.72784     O
O     0.911059 0.7278389999999999 0.6506999999999998     O
O     0.9110590000000003 0.21040000000000003  0.72784     O
O      0.91106 0.7278389999999999   0.2104     O
O     0.9110600000000001   0.6507   0.2104     O
C     0.9112989999999996 0.34769900000000004  0.80408     C
C     0.911299 0.4369200000000001 0.34769999999999995     C
C     0.911299  0.80408 0.34769999999999995     C
C     0.9112999999999998 0.4369190000000001  0.80408     C
C     0.9112999999999999   0.3477 0.43691899999999995     C
C     0.9112999999999999 0.804079 0.43691899999999995     C
C      0.91166 0.8167990000000002 0.8167989999999999     C
C     0.9116600000000001   0.8168 0.9547389999999999     C
C     0.9116610000000002 0.9547389999999999 0.8167989999999999     C
C     0.9149979999999999 0.24922099999999997  0.62114     C
C     0.9149990000000001 0.621139  0.24922     C
C     0.9149999999999998  0.71464  0.24922     C
C        0.915 0.24922099999999997 0.714639     C
C        0.915  0.62114 0.714639     C
C     0.9150000000000001 0.714639  0.62114     C
H     0.9164069999999996 0.686108 0.586789     H
H     0.9164069999999999 0.586788 0.6861099999999999     H
H     0.9164069999999999 0.5867890000000001 0.310695     H
H     0.9164070000000001 0.310694 0.586789     H
H     0.916408 0.310694 0.6861099999999999     H
H     0.916408 0.6861090000000001 0.310695     H
C     0.9194489999999998  0.79913  0.83955     C
C     0.9194489999999998 0.9418690000000002  0.83955     C
C     0.919449 0.799129 0.9418699999999999     C
C     0.919449 0.8395489999999999 0.9418699999999999     C
C     0.919449 0.8395490000000001  0.79913     C
C     0.919449 0.9418700000000002  0.79913     C
C     0.9208799999999998 0.24924099999999993 0.20971899999999996     C
C     0.9208799999999999  0.12016 0.24923899999999996     C
C     0.9208800000000001  0.12016 0.20971899999999996     C
C     0.9208800000000001 0.20972000000000002 0.12015899999999999     C
C     0.9208800000000001 0.24923999999999996 0.12015899999999999     C
C     0.9208809999999998 0.209719 0.24923899999999996     C
C     0.921189 0.6972900000000001 0.290371     C
C     0.9211899999999997 0.290371 0.697289     C
C      0.92119 0.5911490000000001 0.290371     C
C      0.92119 0.5911500000000001 0.697289     C
C     0.921191  0.69729 0.591149     C
C     0.9211910000000002 0.290369 0.591149     C
F     0.9220110000000004 0.655449 0.766289     F
O     0.9240489999999998 0.8727299999999999 0.33482900000000004     O
O     0.9240489999999999 0.3348289999999999 0.8727299999999999     O
O     0.9240489999999999  0.33483 0.368391     O
O     0.9240490000000001  0.87273 0.368391     O
O     0.9240499999999999 0.36838899999999997 0.33482900000000004     O
O      0.92405 0.36838999999999994 0.8727299999999999     O
H     0.924121 0.30606699999999987 0.824999     H
H     0.9241210000000001 0.824997 0.306068     H
H     0.9241219999999999 0.44481100000000007 0.824999     H
H     0.924122 0.306068 0.444811     H
H     0.924122 0.44481099999999996 0.306068     H
H     0.924122 0.824998 0.444811     H
C     0.9254289999999998 0.320789 0.447571     C
C     0.925429  0.44757  0.80621     C
C     0.9254290000000001  0.44757 0.320791     C
C     0.9254299999999999  0.32079  0.80621     C
C      0.92543 0.806208 0.447571     C
C     0.9254300000000002 0.806209 0.320791     C
C     0.9273489999999998 0.45633099999999993 0.359589     C
C     0.9273489999999999 0.3595900000000001 0.456329     C
C     0.927349 0.359589 0.756729     C
C     0.927349  0.75673 0.359589     C
C     0.9273490000000002 0.45632999999999996 0.756729     C
C      0.92735  0.75673 0.456329     C
H     0.9284759999999999 0.124272  0.25815     H
H     0.9284759999999999 0.18910300000000002  0.25815     H
H     0.9284759999999999 0.189104  0.12427     H
H     0.928476 0.25815099999999996  0.12427     H
H     0.9284760000000001  0.12427 0.189103     H
H     0.9284760000000001 0.258151 0.189103     H
H     0.9323689999999997 0.7378280000000002 0.45617099999999994     H
H     0.9323689999999999 0.456171 0.737828     H
H     0.9323690000000001 0.3736289999999999 0.737828     H
H     0.9323690000000001  0.37363 0.45617099999999994     H
H     0.9323690000000001 0.45617200000000013  0.37363     H
H     0.9323690000000001 0.737827  0.37363     H
C     0.9324889999999997 0.22215000000000001 0.22214999999999996     C
C     0.932489 0.222151 0.123209     C
C     0.9324890000000001 0.12321000000000001 0.22214999999999996     C
F      0.93304 0.378559  0.67196     F
F     0.9330400000000001  0.67196  0.51644     F
C     0.933939 0.23638100000000004 0.602979     C
C     0.933939 0.6029800000000001 0.726699     C
C     0.9339399999999999 0.23637999999999998 0.726699     C
C     0.9339399999999999 0.6029790000000002  0.23638     C
C     0.9339400000000001 0.7266989999999999 0.602979     C
C     0.9339400000000001 0.7267000000000001  0.23638     C
C     0.9370890000000001 0.34639000000000003 0.34639099999999995     C
C     0.9370890000000001 0.8701290000000002 0.34639099999999995     C
C     0.9370899999999998 0.34639000000000003  0.87013     C
C     0.9379189999999998  0.57186 0.278579     C
C     0.937919 0.27858000000000005  0.57186     C
C     0.9379199999999998 0.7116390000000001 0.278579     C
C      0.93792 0.278579 0.7116389999999999     C
C      0.93792 0.5718590000000001 0.7116389999999999     C
C     0.9379200000000001 0.711639  0.57186     C
C     0.9379889999999999  0.33209  0.75983     C
C     0.937989 0.470089 0.33209099999999997     C
C     0.937989 0.7598300000000001 0.33209099999999997     C
C     0.9379899999999999  0.33209 0.470089     C
C     0.9379900000000001 0.7598290000000001 0.470089     C
C     0.9379900000000002 0.4700900000000001  0.75983     C
H     0.9390879999999999 0.7365860000000001  0.21579     H
H     0.9390880000000003  0.21579 0.7365869999999999     H
H     0.9390889999999998 0.608534  0.21579     H
H     0.939089  0.21579 0.608534     H
H     0.939089 0.6085340000000001 0.7365869999999999     H
H     0.9390900000000001 0.7365860000000001 0.608534     H
C     0.9413389999999998 0.783139 0.313579     C
C     0.9413389999999999 0.31357900000000005 0.7831399999999998     C
C     0.9413389999999999 0.46194000000000013 0.7831399999999998     C
C     0.9413389999999999 0.783139  0.46194     C
C     0.9413400000000001 0.31357899999999994  0.46194     C
C     0.9413409999999999 0.46193900000000004 0.313579     C
C     0.9418680000000001 0.9194499999999999  0.79913     C
C     0.9418689999999996  0.83955 0.9194489999999998     C
C     0.9418689999999997 0.9194489999999998  0.83955     C
C     0.9418689999999998 0.7991300000000001 0.9194489999999998     C
C     0.9418690000000002  0.79913  0.83955     C
C      0.94187 0.8395490000000001  0.79913     C
O     0.943539 0.16922100000000004 0.712559     O
O     0.9435390000000001  0.71256 0.674679     O
O     0.9435390000000002  0.67468 0.712559     O
O      0.94354  0.67468 0.169219     O
O     0.9435400000000002  0.71256 0.169219     O
O     0.9435400000000003 0.16922000000000006 0.674679     O
C     0.945549 0.251289  0.72529     C
C     0.945549  0.25129  0.57787     C
C     0.945549 0.5778690000000001  0.72529     C
C     0.945549  0.72529  0.57787     C
C     0.9455499999999997 0.7252890000000001 0.251289     C
C     0.9455499999999999  0.57787 0.251289     C
O     0.9492179999999998 0.696341 0.31693899999999997     O
O     0.9492189999999998  0.31694  0.69634     O
O     0.949219  0.31694 0.537499     O
O     0.949219 0.5374999999999999  0.69634     O
O     0.949219  0.69634 0.537499     O
O     0.9492199999999998 0.5374989999999998 0.31693899999999997     O
H     0.9494439999999997 0.9083570000000001 0.786892     H
H     0.9494439999999998 0.786892 0.855306     H
H     0.949444 0.855305 0.786892     H
H     0.949445  0.78689 0.908357     H
H     0.949445 0.8553049999999999 0.908357     H
H     0.949445 0.908356 0.855306     H
C     0.9520789999999998 0.206261   0.1354     C
C     0.952079 0.13539999999999996  0.20626     C
C     0.952079  0.20626  0.20626     C
C     0.952099   0.1585 0.6946989999999998     C
C     0.9520999999999997 0.6947000000000001 0.6946989999999998     C
C     0.9521000000000002 0.694699   0.1585     C
C     0.9542290000000001 0.32264899999999996  0.73919     C
C     0.9542290000000001 0.48392900000000005  0.73919     C
C     0.9542290000000002  0.73919  0.32265     C
C     0.9542299999999999 0.48392999999999997  0.32265     C
C     0.9542299999999999 0.739189 0.483929     C
C     0.954231 0.322649 0.483929     C
C     0.9542989999999999  0.29076 0.547601     C
C     0.9542989999999999 0.707339 0.547601     C
C     0.954299 0.29075999999999996  0.70734     C
C     0.9542990000000001 0.5476000000000001  0.29076     C
C     0.9542990000000001 0.7073400000000001  0.29076     C
C     0.9542990000000002 0.5475999999999999  0.70734     C
C     0.9547389999999997 0.8167990000000002 0.8167989999999999     C
C     0.9547390000000001 0.8167999999999999 0.9116589999999999     C
C     0.9547390000000001  0.91166 0.8167989999999999     C
H     0.9554280000000002 0.294589 0.783608     H
H     0.9554289999999998 0.7836079999999999 0.294588     H
H     0.9554289999999999 0.294589 0.466374     H
H     0.9554289999999999 0.7836069999999999 0.466374     H
H     0.9554290000000001 0.46637400000000007 0.783608     H
H     0.9554300000000001 0.466373 0.294588     H
H     0.957806 0.338561 0.582108     H
H     0.9578069999999997 0.621524 0.338559     H
H     0.9578069999999999  0.33856 0.621524     H
H     0.957807 0.582107 0.338559     H
H     0.9578079999999999 0.6215230000000002 0.582108     H
H     0.957808 0.5821080000000001 0.621524     H
O     0.959129 0.4864510000000001 0.716029     O
O     0.959129 0.716031 0.486449     O
O     0.9591290000000001 0.4864509999999999  0.33839     O
O     0.9591290000000001 0.7160290000000001  0.33839     O
O     0.9591299999999999 0.33838899999999994 0.486449     O
O     0.9591299999999999 0.33838999999999997 0.716029     O
H     0.9599469999999999 0.24215199999999998   0.7344     H
H     0.9599469999999999 0.563499 0.242153     H
H     0.9599469999999999 0.563499   0.7344     H
H     0.9599469999999999 0.7343999999999999   0.5635     H
H     0.9599470000000001 0.24215199999999998   0.5635     H
H     0.9599479999999998 0.734399 0.242153     H
H      0.96097 0.4551339999999999 0.414506     H
H     0.9609700000000001 0.45513299999999995 0.669389     H
H     0.9609700000000002 0.41450699999999996 0.455133     H
H     0.9609709999999999 0.669388 0.455133     H
H     0.960971 0.41450499999999996 0.669389     H
H     0.9609710000000001 0.669388 0.414506     H
O     0.9621889999999998 0.13921000000000003 0.183071     O
O     0.962189  0.21553 0.139211     O
O     0.9621890000000001 0.21553000000000003 0.183071     O
O     0.9621899999999999 0.183069 0.139211     O
O      0.96219  0.13921 0.215529     O
O      0.96219 0.18307000000000007 0.215529     O
Cr    0.9643689999999999  0.50981  0.34617    Cr
Cr    0.964369 0.34617000000000003  0.50981    Cr
Cr    0.964369 0.5098099999999999 0.679649    Cr
Cr    0.9643690000000003 0.6796499999999999  0.50981    Cr
Cr    0.9643699999999998 0.6796490000000001  0.34617    Cr
Cr    0.9643710000000001 0.346169 0.679649    Cr
C     0.9657599999999997  0.33816 0.857919     C
C     0.9657599999999998  0.33816  0.33816     C
C     0.9657599999999998 0.857919  0.33816     C
H      0.96936 0.8588880000000001 0.369369     H
H     0.9693609999999997 0.302382 0.858888     H
H     0.9693609999999997 0.369369 0.858888     H
H     0.9693609999999999  0.30238 0.369369     H
H     0.9693609999999999 0.36936899999999995  0.30238     H
H     0.9693620000000001 0.8588880000000001  0.30238     H
O     0.9697189999999998 0.48521999999999993 0.299299     O
O     0.9697189999999999   0.2993 0.48521899999999996     O
O     0.969719 0.29929999999999995 0.745761     O
O     0.9697199999999997 0.485219 0.745761     O
O     0.9697199999999998  0.74576 0.48521899999999996     O
O     0.9697199999999999 0.7457590000000001 0.299299     O
O     0.9721589999999997 0.274899  0.71834     O
O     0.9721589999999998   0.2749 0.534599     O
O     0.9721589999999999   0.5346   0.2749     O
O     0.9721590000000003  0.71834   0.2749     O
O     0.9721599999999999 0.7183389999999998 0.534599     O
O     0.9721600000000002 0.5345990000000002  0.71834     O
C     0.9744599999999999 0.5816000000000001 0.604199     C
C      0.97446 0.5816000000000001 0.339741     C
C      0.97446 0.6041990000000002 0.339741     C
C      0.97446   0.6042 0.581599     C
C     0.9744600000000001 0.33973899999999996 0.604199     C
C     0.9744600000000002 0.33974100000000007 0.581599     C
O     0.9752880000000002 0.6446500000000001  0.53087     O
O     0.9752889999999999  0.34919  0.53087     O
O     0.975289  0.53087 0.644649     O
O     0.9752899999999998 0.5308690000000001 0.34918899999999997     O
O      0.97529 0.6446510000000001 0.34918899999999997     O
O     0.9752900000000001  0.34919 0.644649     O
C     0.9770289999999999  0.89069 0.816139     C
C     0.977029  0.81614  0.89069     C
C     0.9770309999999998 0.8161400000000001 0.816139     C
C     0.9787589999999999 0.43969900000000006  0.66492     C
C     0.9787589999999999 0.6649180000000001   0.4397     C
C     0.9787599999999996 0.4166199999999999  0.66492     C
C     0.9787599999999997  0.66492 0.41662099999999996     C
C     0.9787599999999999 0.41661900000000013   0.4397     C
C      0.97876   0.4397 0.41662099999999996     C
C     0.979609 0.3132910000000001  0.35069     C
C     0.9796099999999999 0.14589000000000008 0.6872499999999999     C
C     0.9796099999999999 0.35068900000000003 0.313291     C
C     0.9796099999999999  0.35069 0.856409     C
C     0.9796099999999999 0.6872499999999999  0.14589     C
C     0.9796099999999999 0.856409 0.313291     C
C     0.9796099999999999 0.856409  0.35069     C
C     0.9796100000000001 0.31329100000000015 0.856409     C
C     0.9796100000000001 0.6872500000000001 0.6872499999999999     C
H     0.9814899999999999 0.715044 0.649391     H
O     0.9814899999999999 0.8381489999999999 0.8011289999999999     O
O     0.9814899999999999 0.8381500000000001 0.879229     O
O     0.9814899999999999 0.8792300000000001 0.838149     O
H      0.98149 0.6493910000000002 0.715044     H
O     0.9814900000000001 0.8011290000000001 0.879229     O
O     0.9814900000000001 0.8792289999999999 0.8011289999999999     O
H     0.9814909999999997 0.649391 0.154074     H
H     0.9814909999999997 0.715044 0.154074     H
H     0.9814909999999998 0.15407399999999993 0.649391     H
O     0.9814909999999998 0.8011290000000001 0.838149     O
H     0.9814909999999999 0.15407200000000001 0.715044     H
O     0.9830589999999998 0.368159 0.6709600000000001     O
O     0.9830589999999998 0.4778190000000001 0.6709600000000001     O
O     0.9830589999999998  0.67096 0.368159     O
O     0.9830590000000001 0.670961 0.477819     O
O     0.9830600000000002 0.477819 0.368159     O
O     0.9830600000000003 0.36815999999999993 0.477819     O
F     0.9838889999999999  0.13815  0.23981     F
O     0.9874699999999998 0.17084300000000002 0.17084299999999997     O
Cr    0.9895689999999999  0.15227 0.20588999999999996    Cr
Cr    0.989569 0.205889 0.152271    Cr
Cr     0.98957 0.15226999999999996 0.152271    Cr
C     0.9925580000000002 0.148421  0.69802     C
C     0.9925589999999999 0.6980200000000001  0.14842     C
C      0.99256 0.6609989999999999  0.69802     C
C      0.99256 0.660999  0.14842     C
C     0.9925600000000001  0.14842 0.660999     C
C     0.992561 0.698019 0.660999     C
C     0.996478 0.6038799999999999  0.55834     C
C     0.996479 0.5583399999999998   0.3413     C
C     0.9964790000000001 0.558339  0.60388     C
C     0.9964799999999998 0.341299  0.60388     C
C      0.99648 0.34129999999999994  0.55834     C
C     0.9964800000000001  0.60388   0.3413     C
C     0.9965189999999999 0.6260800000000001 0.534359     C
C     0.996519 0.534359  0.34304     C
C     0.9965190000000002 0.3430400000000001 0.534359     C
C     0.9965199999999997 0.6260800000000001  0.34304     C
C     0.9965200000000001 0.534359 0.6260789999999999     C
C     0.9965210000000002 0.343039 0.6260789999999999     C
N     1.022237937508196 0.8442611066993614 0.2800203413575038     N
N     1.0222394527947665 0.3534798907791537 0.28002144875182666     N
H     1.0249281110175585 0.8581122196187801 0.2619762551226087     H
H     1.024930526049164 0.35498337732963225 0.2619767818395961     H
H     1.0304858356353266 0.8250003769925142 0.281832636421858     H
H     1.0304870611712833 0.36267967132631057 0.28183514300236356     H
N     1.0342828120897831 0.14028736285147786 0.7001838192510104     N
H     1.036537875853422 0.15601641650592166 0.6986995943450838     H
H     1.0422959050881575 0.12211796869595237 0.7116269540381183     H
N     1.0443788163435987 0.5405634502538195 0.3292690958913065     N
N     1.0470246402629682 0.3734351614867184 0.41775793788212306     N
N     1.0470253289075242 0.6617820807862449 0.4177579941299043     N
N     1.0470262179000933 0.3734346037896533 0.6617831597942561     N
H     1.0481813055953138 0.35997110514424163 0.4123232082719282     H
H     1.0481819584431522 0.6795243993710913 0.4123225602567774     H
H     1.0481823784025859 0.3599717152339109 0.6795258284778991     H
H     1.0514355003277083 0.5256824281409656 0.34378989531909593     H
H     1.0544249574830187 0.5408565877716701 0.31045254125274335     H
H     1.0617484438206422 0.3703686850150306 0.4227180998399739     H
H     1.061748938129631 0.6451647784347095 0.4227189019251341     H
H     1.0617507314976704 0.37036728645079237 0.6451663048715849     H
