data_I
_chemical_name_common  '/home/zhangsd/repos/MofS-CGCNN/ML/data/WS24/clean_cifs/MOF-802'
_cell_length_a 39.22230
_cell_length_b 26.01820
_cell_length_c 27.88720
_cell_angle_alpha 90.00000
_cell_angle_beta  90.00000
_cell_angle_gamma 90.00000
_space_group_name_H-M_alt      'P 1'


loop_
_space_group_symop_operation_xyz
  'x, y, z' 

loop_
_atom_site_label
_atom_site_fract_x
_atom_site_fract_y
_atom_site_fract_z
_atom_site_type_symbol
C      0.00014  0.27264  0.78835     C
C      0.00014  0.77264  0.28835     C
C      0.00114  0.21727  0.34065     C
C      0.00114  0.71727  0.84065     C
C      0.00124  0.22124  0.47175     C
C      0.00124  0.72124  0.97175     C
C      0.00194  0.21367  0.41904     C
C      0.00194  0.71367  0.91904     C
C      0.00394  0.25375  0.88037     C
C      0.00394  0.75375  0.38037     C
O      0.00762  0.23324  0.98474     O
O      0.00762  0.73324  0.48474     O
O      0.00832  0.22734  0.77484     O
O      0.00832  0.72734  0.27484     O
O     0.0086518  0.18134  0.49664     O
O     0.0086518  0.68134  0.99664     O
O     0.0091918  0.18984  0.26154     O
O     0.0091918  0.68984  0.76154     O
N      0.00924  0.16867  0.35405     N
N      0.00924  0.66867  0.85405     N
N      0.00964  0.16557  0.40185     N
N      0.00964  0.66557  0.90185     N
H       0.0101   0.2185   0.8815     H
H       0.0101   0.7185   0.3815     H
Zr    0.012322 0.172903 0.574883    Zr
Zr    0.012322 0.672903 0.074883    Zr
Zr    0.012532 0.191313 0.701013    Zr
Zr    0.012532 0.691313 0.201013    Zr
Zr    0.013102 0.199783 0.058893    Zr
Zr    0.013102 0.699783 0.558893    Zr
Zr    0.013362 0.181123 0.184183    Zr
Zr    0.013362 0.681123 0.684183    Zr
O     0.0149113  0.32162  0.13842     O
O     0.0149113  0.82162  0.63842     O
O     0.0174914  0.33462  0.61872     O
O     0.0174914  0.83462  0.11872     O
C      0.01951 0.072113 0.688817     C
C      0.01951 0.572113 0.188817     C
O     0.0250816  0.25012  0.57662     O
O     0.0250816  0.75012  0.07662     O
H       0.0254   0.3708   0.6141     H
H       0.0254   0.8708   0.1141     H
O     0.0254016  0.26482  0.68122     O
O     0.0254016  0.76482  0.18122     O
O      0.02662  0.10124  0.17284     O
O      0.02662  0.60124  0.67284     O
O      0.02692  0.11934  0.05134     O
O      0.02692  0.61934  0.55134     O
O     0.0305617  0.35604  0.23094     O
O     0.0305617  0.85604  0.73094     O
O     0.0310217  0.33994  0.52344     O
O     0.0310217  0.83994  0.02344     O
O      0.03132  0.11284  0.70834     O
O      0.03132  0.61284  0.20834     O
O      0.03142  0.09594  0.58164     O
O      0.03142  0.59594  0.08164     O
O     0.0315616  0.38124  0.05804     O
O     0.0315616  0.88124  0.55804     O
O     0.0323217  0.36584  0.71004     O
O     0.0323217  0.86584  0.21004     O
O     0.0340716  0.25892  0.20182     O
O     0.0340716  0.75892  0.70182     O
O     0.0342716  0.27932  0.06152     O
O     0.0342716  0.77932  0.56152     O
N     0.036513 0.027418   0.6922     N
N     0.036513 0.527418   0.1922     N
O     0.0378213  0.20982  0.12422     O
O     0.0378213  0.70982  0.62422     O
O     0.0473714  0.18552  0.63712     O
O     0.0473714  0.68552  0.13712     O
H       0.0483    0.261   0.2314     H
H       0.0483    0.761   0.7314     H
H       0.0486   0.2897   0.0334     H
H       0.0486   0.7897   0.5334     H
C      0.05067  0.08931 0.058413     C
C      0.05067  0.58931 0.558413     C
Zr    0.059652 0.272762 0.626673    Zr
Zr    0.059652 0.772762 0.126673    Zr
Zr    0.060262 0.281212 0.133243    Zr
Zr    0.060262 0.781212 0.633243    Zr
C      0.06065  0.07681 0.587511     C
C      0.06065  0.57681 0.087511     C
C      0.06172  0.35924  0.22044     C
C      0.06172  0.85924  0.72044     C
C      0.06202  0.34554  0.53434     C
C      0.06202  0.84554  0.03434     C
C      0.06312  0.37884  0.06514     C
C      0.06312  0.87884  0.56514     C
C      0.06332  0.36454  0.70094     C
C      0.06332  0.86454  0.20094     C
O      0.06548  0.05421 0.035811     O
O      0.06548  0.55421 0.535811     O
O     0.0663718  0.19714  0.73234     O
O     0.0663718  0.69714  0.23234     O
O     0.0668017  0.17284  0.54284     O
O     0.0668017  0.67284  0.04284     O
H       0.0673   0.1617     0.64     H
H       0.0673   0.6617     0.14     H
N      0.06742  0.41134  0.47154     N
N      0.06742  0.91134  0.97154     N
O     0.0676217  0.16974  0.20744     O
O     0.0676217  0.66974  0.70744     O
O     0.0678617  0.19574  0.03434     O
O     0.0678617  0.69574  0.53434     O
N     0.0684112  0.44444  0.00174     N
N     0.0684112  0.94444  0.50174     N
N      0.06854  0.42465  0.28405     N
N      0.06854  0.92465  0.78405     N
N      0.07182  0.42855  0.76425     N
N      0.07182  0.92855  0.26425     N
C     0.071913 0.022417   0.7092     C
C     0.071913 0.522417   0.2092     C
O     0.0775016  0.32592  0.57012     O
O     0.0775016  0.82592  0.07012     O
O     0.0775617  0.33694  0.18754     O
O     0.0775617  0.83694  0.68754     O
O     0.0784916  0.33902  0.66812     O
O     0.0784916  0.83902  0.16812     O
O     0.0786216  0.34942  0.09374     O
O     0.0786216  0.84942  0.59374     O
C      0.08224  0.39524  0.25055     C
C      0.08224  0.89524  0.75055     C
C      0.08294  0.37914  0.50354     C
C      0.08294  0.87914  0.00354     C
O      0.08445  0.09649  0.61419     O
O      0.08445  0.59649  0.11419     O
C     0.0846416  0.41174  0.03552     C
C     0.0846416  0.91174  0.53552     C
C      0.08544  0.39555  0.73354     C
C      0.08544  0.89555  0.23354     C
N      0.09252  0.43704  0.44954     N
N      0.09252  0.93704  0.94954     N
N      0.09284  0.45195  0.30465     N
N      0.09284  0.95195  0.80465     N
C      0.09364  0.21544  0.71574     C
C      0.09364  0.71544  0.21574     C
C      0.09392  0.19594  0.55294     C
C      0.09392  0.69594  0.05294     C
N     0.0941416  0.46814  0.97354     N
N     0.0941416  0.96814  0.47354     N
C      0.09472  0.19464  0.19854     C
C      0.09472  0.69464  0.69854     C
N      0.09492  0.45075  0.79155     N
N      0.09492  0.95075  0.29155     N
C      0.09532  0.21404  0.05124     C
C      0.09532  0.71404  0.55124     C
O     0.0971817  0.24392  0.67952     O
O     0.0971817  0.74392  0.17952     O
O     0.0974316  0.23094  0.58444     O
O     0.0974316  0.73094  0.08444     O
O     0.0978217  0.23594  0.17514     O
O     0.0978217  0.73594  0.67514     O
O     0.0982917  0.24854  0.08274     O
O     0.0982917  0.74854  0.58274     O
H       0.1126   0.1473   0.7958     H
H       0.1126   0.6473   0.2958     H
H       0.1137    0.126   0.4744     H
H       0.1137    0.626   0.9744     H
H       0.1157   0.1187    0.271     H
H       0.1157   0.6187    0.771     H
H       0.1167   0.1384   0.9779     H
H       0.1167   0.6384   0.4779     H
C      0.11704  0.40394  0.24864     C
C      0.11704  0.90394  0.74864     C
C      0.11784  0.38574  0.50184     C
C      0.11784  0.88574  0.00184     C
C      0.11944  0.39554  0.74074     C
C      0.11944  0.89554  0.24074     C
C     0.1203914  0.41524  0.02814     C
C     0.1203914  0.91524  0.52814     C
C      0.12234  0.43984  0.28325     C
C      0.12234  0.93984  0.78325     C
C     0.1237412  0.20004  0.73984     C
C     0.1237412  0.70004  0.23984     C
C      0.12384  0.42164  0.46684     C
C      0.12384  0.92164  0.96684     C
C      0.12394  0.43054  0.77774     C
C      0.12394  0.93054  0.27774     C
C      0.12614  0.18054  0.52774     C
C      0.12614  0.68054  0.02774     C
C      0.12624  0.17164  0.21684     C
C      0.12624  0.67164  0.71684     C
C     0.1262612  0.45004  0.98984     C
C     0.1262612  0.95004  0.48984     C
C      0.12774  0.18984  0.03325     C
C      0.12774  0.68984  0.53325     C
C     0.1296114  0.16524  0.77814     C
C     0.1296114  0.66524  0.27814     C
C      0.13064  0.14554  0.49074     C
C      0.13064  0.64554  0.99074     C
C      0.13224  0.13574  0.25184     C
C      0.13224  0.63574  0.75184     C
C      0.13304  0.15394  0.99864     C
C      0.13304  0.65394  0.49864     C
H       0.1333   0.3884   0.2279     H
H       0.1333   0.8884   0.7279     H
H       0.1343   0.3687    0.521     H
H       0.1343   0.8687    0.021     H
H       0.1363    0.376   0.7244     H
H       0.1363    0.876   0.2244     H
H       0.1374   0.3973   0.0458     H
H       0.1374   0.8973   0.5458     H
O     0.1517117  0.49854  0.33274     O
O     0.1517117  0.99854  0.83274     O
O     0.1521817  0.48594  0.42514     O
O     0.1521817  0.98594  0.92514     O
O     0.1525716  0.48094  0.83444     O
O     0.1525716  0.98094  0.33444     O
O     0.1528217  0.49392  0.92952     O
O     0.1528217  0.99392  0.42952     O
C      0.15472  0.46404  0.30124     C
C      0.15472  0.96404  0.80124     C
N      0.15512  0.20075  0.54155     N
N      0.15512  0.70075  0.04155     N
C      0.15532  0.44464  0.44854     C
C      0.15532  0.94464  0.94854     C
N     0.1558616  0.21814  0.72354     N
N     0.1558616  0.71814  0.22354     N
C      0.15612  0.44594  0.80294     C
C      0.15612  0.94594  0.30294     C
C      0.15644  0.46544  0.96574     C
C      0.15644  0.96544  0.46574     C
N      0.15724  0.20195  0.05465     N
N      0.15724  0.70195  0.55465     N
N      0.15752  0.18704  0.19954     N
N      0.15752  0.68704  0.69954     N
C      0.16464  0.14555  0.48354     C
C      0.16464  0.64555  0.98354     C
C     0.1653616  0.16174  0.78552     C
C     0.1653616  0.66174  0.28552     C
O      0.16565  0.34649  0.86419     O
O      0.16565  0.84649  0.36419     O
C      0.16714  0.12914  0.25354     C
C      0.16714  0.62914  0.75354     C
C      0.16784  0.14524  0.00055     C
C      0.16784  0.64524  0.50055     C
O     0.1713816  0.09942  0.84374     O
O     0.1713816  0.59942  0.34374     O
O     0.1715116  0.08902  0.41812     O
O     0.1715116  0.58902  0.91812     O
O     0.1724417  0.08694  0.93754     O
O     0.1724417  0.58694  0.43754     O
O     0.1725016  0.07592  0.32012     O
O     0.1725016  0.57592  0.82012     O
C     0.178113 0.272417   0.9592     C
C     0.178113 0.772417   0.4592     C
N      0.17822  0.17855  0.51425     N
N      0.17822  0.67855  0.01425     N
N      0.18154  0.17465  0.03405     N
N      0.18154  0.67465  0.53405     N
N     0.1815912  0.19444  0.75174     N
N     0.1815912  0.69444  0.25174     N
O     0.1821417  0.44574  0.28434     O
O     0.1821417  0.94574  0.78434     O
O     0.1823817  0.41974  0.45744     O
O     0.1823817  0.91974  0.95744     O
N      0.18262  0.16134  0.22154     N
N      0.18262  0.66134  0.72154     N
H       0.1827   0.4117     0.89     H
H       0.1827   0.9117     0.39     H
O     0.1832017  0.42284  0.79284     O
O     0.1832017  0.92284  0.29284     O
O     0.1836318  0.44714  0.98234     O
O     0.1836318  0.94714  0.48234     O
O      0.18468  0.30421 0.285811     O
O      0.18468  0.80421 0.785811     O
C      0.18672  0.11454  0.45094     C
C      0.18672  0.61454  0.95094     C
C      0.18692  0.12884  0.81514     C
C      0.18692  0.62884  0.31514     C
C      0.18802  0.09554  0.28434     C
C      0.18802  0.59554  0.78434     C
C      0.18832  0.10924  0.97044     C
C      0.18832  0.60924  0.47044     C
C      0.18945  0.32681 0.837511     C
C      0.18945  0.82681 0.337511     C
Zr    0.189742 0.031212 0.883243    Zr
Zr    0.189742 0.531212 0.383243    Zr
Zr    0.190352 0.022762 0.376673    Zr
Zr    0.190352 0.522762 0.876673    Zr
C      0.19947  0.33931 0.308413     C
C      0.19947  0.83931 0.808413     C
H       0.2014   0.0397   0.7834     H
H       0.2014   0.5397   0.2834     H
H       0.2017    0.011   0.9814     H
H       0.2017    0.511   0.4814     H
O     0.2026314  0.43552  0.88712     O
O     0.2026314  0.93552  0.38712     O
O     0.2121813  0.45982  0.37422     O
O     0.2121813  0.95982  0.87422     O
N     0.213513 0.277418   0.9422     N
N     0.213513 0.777418   0.4422     N
O     0.2157316  0.02932  0.81152     O
O     0.2157316  0.52932  0.31152     O
O     0.2159316  0.00892  0.95182     O
O     0.2159316  0.50892  0.45182     O
O     0.2176817  0.11584  0.46004     O
O     0.2176817  0.61584  0.96004     O
O     0.2184416  0.13124  0.80804     O
O     0.2184416  0.63124  0.30804     O
O      0.21862  0.34594  0.83164     O
O      0.21862  0.84594  0.33164     O
O      0.21872  0.36284  0.95834     O
O      0.21872  0.86284  0.45834     O
O     0.2189817  0.08994  0.27344     O
O     0.2189817  0.58994  0.77344     O
O     0.2194417  0.10604  0.98094     O
O     0.2194417  0.60604  0.48094     O
O      0.22312  0.36934  0.30134     O
O      0.22312  0.86934  0.80134     O
O      0.22342  0.35124  0.42284     O
O      0.22342  0.85124  0.92284     O
H       0.2246   0.1208   0.3641     H
H       0.2246   0.6208   0.8641     H
O     0.2246016  0.01482  0.43122     O
O     0.2246016  0.51482  0.93122     O
O     0.2249216  0.00012  0.32662     O
O     0.2249216  0.50012  0.82662     O
C      0.23051 0.322113 0.938817     C
C      0.23051 0.822113 0.438817     C
O     0.2325114  0.08462  0.36872     O
O     0.2325114  0.58462  0.86872     O
O     0.2350913  0.07162  0.88842     O
O     0.2350913  0.57162  0.38842     O
Zr    0.236642 0.431123 0.434183    Zr
Zr    0.236642 0.931123 0.934183    Zr
Zr    0.236902 0.449783 0.308893    Zr
Zr    0.236902 0.949783 0.808893    Zr
Zr    0.237472 0.441313 0.951013    Zr
Zr    0.237472 0.941313 0.451013    Zr
Zr    0.237682 0.422903 0.824883    Zr
Zr    0.237682 0.922903 0.324883    Zr
H       0.2399   0.4685   0.1315     H
H       0.2399   0.9685   0.6315     H
N      0.24044  0.41557  0.65185     N
N      0.24044  0.91557  0.15185     N
O     0.2408118  0.43984  0.51154     O
O     0.2408118  0.93984  0.01154     O
N      0.24084  0.41867  0.60405     N
N      0.24084  0.91867  0.10405     N
O     0.2413518  0.43134  0.74664     O
O     0.2413518  0.93134  0.24664     O
O      0.24172  0.47734  0.02484     O
O      0.24172  0.97734  0.52484     O
O      0.24242  0.48324  0.23474     O
O      0.24242  0.98324  0.73474     O
C      0.24614  0.00375  0.63037     C
C      0.24614  0.50375  0.13037     C
C      0.24814  0.46367  0.66904     C
C      0.24814  0.96367  0.16904     C
C      0.24884  0.47124  0.72175     C
C      0.24884  0.97124  0.22175     C
C      0.24894  0.46727  0.59065     C
C      0.24894  0.96727  0.09065     C
C      0.24994  0.02264  0.53835     C
C      0.24994  0.52264  0.03835     C
C      0.25014  0.47744  0.53835     C
C      0.25014  0.97744  0.03835     C
C      0.25114  0.03287  0.59065     C
C      0.25114  0.53287  0.09065     C
C      0.25124  0.02884  0.72175     C
C      0.25124  0.52884  0.22175     C
C      0.25194  0.03647  0.66904     C
C      0.25194  0.53647  0.16904     C
C      0.25394  0.49635  0.63037     C
C      0.25394  0.99635  0.13037     C
O      0.25762  0.01684  0.23474     O
O      0.25762  0.51684  0.73474     O
O      0.25832  0.02274  0.02484     O
O      0.25832  0.52274  0.52484     O
O     0.2586518  0.06874  0.74664     O
O     0.2586518  0.56874  0.24664     O
O     0.2591918  0.06024  0.51154     O
O     0.2591918  0.56024  0.01154     O
N      0.25924  0.08147  0.60405     N
N      0.25924  0.58147  0.10405     N
N      0.25964  0.08457  0.65185     N
N      0.25964  0.58457  0.15185     N
H       0.2601   0.0315   0.1315     H
H       0.2601   0.5315   0.6315     H
Zr    0.262322 0.077103 0.824883    Zr
Zr    0.262322 0.577103 0.324883    Zr
Zr    0.262532 0.058693 0.951013    Zr
Zr    0.262532 0.558693 0.451013    Zr
Zr    0.263102 0.050223 0.308893    Zr
Zr    0.263102 0.550223 0.808893    Zr
Zr    0.263362 0.068883 0.434183    Zr
Zr    0.263362 0.568883 0.934183    Zr
O     0.2649113  0.42842  0.88842     O
O     0.2649113  0.92842  0.38842     O
O     0.2674914  0.41542  0.36872     O
O     0.2674914  0.91542  0.86872     O
C      0.26951 0.177913 0.938817     C
C      0.26951 0.677913 0.438817     C
O     0.2750816  0.49992  0.32662     O
O     0.2750816  0.99992  0.82662     O
H       0.2754   0.3792   0.3641     H
H       0.2754   0.8792   0.8641     H
O     0.2754016  0.48522  0.43122     O
O     0.2754016  0.98522  0.93122     O
O      0.27662  0.14884  0.42284     O
O      0.27662  0.64884  0.92284     O
O      0.27692  0.13074  0.30134     O
O      0.27692  0.63074  0.80134     O
O     0.2805617  0.39404  0.98094     O
O     0.2805617  0.89404  0.48094     O
O     0.2810217  0.41014  0.27344     O
O     0.2810217  0.91014  0.77344     O
O      0.28132  0.13724  0.95834     O
O      0.28132  0.63724  0.45834     O
O      0.28142  0.15414  0.83164     O
O      0.28142  0.65414  0.33164     O
O     0.2815616  0.36884  0.80804     O
O     0.2815616  0.86884  0.30804     O
O     0.2823217  0.38424  0.46004     O
O     0.2823217  0.88424  0.96004     O
O     0.2840716  0.49112  0.95182     O
O     0.2840716  0.99112  0.45182     O
O     0.2842716  0.47072  0.81152     O
O     0.2842716  0.97072  0.31152     O
N     0.286513 0.222618   0.9422     N
N     0.286513 0.722618   0.4422     N
O     0.2878213  0.04022  0.37422     O
O     0.2878213  0.54022  0.87422     O
O     0.2973714  0.06452  0.88712     O
O     0.2973714  0.56452  0.38712     O
H       0.2983    0.489   0.9814     H
H       0.2983    0.989   0.4814     H
H       0.2986   0.4603   0.7834     H
H       0.2986   0.9603   0.2834     H
C      0.30067  0.16071 0.308413     C
C      0.30067  0.66071 0.808413     C
Zr    0.309652 0.477242 0.376673    Zr
Zr    0.309652 0.977242 0.876673    Zr
Zr    0.310262 0.468792 0.883243    Zr
Zr    0.310262 0.968792 0.383243    Zr
C      0.31065  0.17321 0.837511     C
C      0.31065  0.67321 0.337511     C
C      0.31172  0.39084  0.97044     C
C      0.31172  0.89084  0.47044     C
C      0.31202  0.40454  0.28434     C
C      0.31202  0.90454  0.78434     C
C      0.31312  0.37124  0.81514     C
C      0.31312  0.87124  0.31514     C
C      0.31332  0.38554  0.45094     C
C      0.31332  0.88554  0.95094     C
O      0.31548  0.19581 0.285811     O
O      0.31548  0.69581 0.785811     O
O     0.3163718  0.05294  0.98234     O
O     0.3163718  0.55294  0.48234     O
O     0.3168017  0.07724  0.79284     O
O     0.3168017  0.57724  0.29284     O
H       0.3173   0.0883     0.89     H
H       0.3173   0.5883     0.39     H
N      0.31742  0.33874  0.22154     N
N      0.31742  0.83874  0.72154     N
O     0.3176217  0.08034  0.45744     O
O     0.3176217  0.58034  0.95744     O
O     0.3178617  0.05434  0.28434     O
O     0.3178617  0.55434  0.78434     O
N     0.3184112  0.30564  0.75174     N
N     0.3184112  0.80564  0.25174     N
N      0.31854  0.32545  0.03405     N
N      0.31854  0.82545  0.53405     N
N      0.32182  0.32155  0.51425     N
N      0.32182  0.82155  0.01425     N
C     0.321913 0.227617   0.9592     C
C     0.321913 0.727617   0.4592     C
O     0.3275016  0.42412  0.32012     O
O     0.3275016  0.92412  0.82012     O
O     0.3275617  0.41314  0.93754     O
O     0.3275617  0.91314  0.43754     O
O     0.3284916  0.41102  0.41812     O
O     0.3284916  0.91102  0.91812     O
O     0.3286216  0.40062  0.84374     O
O     0.3286216  0.90062  0.34374     O
C      0.33224  0.35484  0.00055     C
C      0.33224  0.85484  0.50055     C
C      0.33294  0.37094  0.25354     C
C      0.33294  0.87094  0.75354     C
O      0.33445  0.15369  0.86419     O
O      0.33445  0.65369  0.36419     O
C     0.3346416  0.33834  0.78552     C
C     0.3346416  0.83834  0.28552     C
C      0.33544  0.35455  0.48354     C
C      0.33544  0.85455  0.98354     C
N      0.34252  0.31304  0.19954     N
N      0.34252  0.81304  0.69954     N
N      0.34284  0.29815  0.05465     N
N      0.34284  0.79815  0.55465     N
C      0.34364  0.03464  0.96574     C
C      0.34364  0.53464  0.46574     C
C      0.34392  0.05414  0.80294     C
C      0.34392  0.55414  0.30294     C
N     0.3441416  0.28194  0.72354     N
N     0.3441416  0.78194  0.22354     N
C      0.34472  0.05544  0.44854     C
C      0.34472  0.55544  0.94854     C
N      0.34492  0.29935  0.54155     N
N      0.34492  0.79935  0.04155     N
C      0.34532  0.03604  0.30124     C
C      0.34532  0.53604  0.80124     C
O     0.3471817  0.00612  0.92952     O
O     0.3471817  0.50612  0.42952     O
O     0.3474316  0.01914  0.83444     O
O     0.3474316  0.51914  0.33444     O
O     0.3478217  0.01414  0.42514     O
O     0.3478217  0.51414  0.92514     O
O     0.3482917  0.00154  0.33274     O
O     0.3482917  0.50154  0.83274     O
H       0.3626   0.1027   0.0458     H
H       0.3626   0.6027   0.5458     H
H       0.3637    0.124   0.7244     H
H       0.3637    0.624   0.2244     H
H       0.3657   0.1313    0.521     H
H       0.3657   0.6313    0.021     H
H       0.3667   0.1116   0.2279     H
H       0.3667   0.6116   0.7279     H
C      0.36704  0.34614  0.99864     C
C      0.36704  0.84614  0.49864     C
C      0.36784  0.36434  0.25184     C
C      0.36784  0.86434  0.75184     C
C      0.36944  0.35454  0.49074     C
C      0.36944  0.85454  0.99074     C
C     0.3703914  0.33484  0.77814     C
C     0.3703914  0.83484  0.27814     C
C      0.37234  0.31024  0.03325     C
C      0.37234  0.81024  0.53325     C
C     0.3737412  0.05004  0.98984     C
C     0.3737412  0.55004  0.48984     C
C      0.37384  0.32844  0.21684     C
C      0.37384  0.82844  0.71684     C
C      0.37394  0.31954  0.52774     C
C      0.37394  0.81954  0.02774     C
C      0.37614  0.06954  0.77774     C
C      0.37614  0.56954  0.27774     C
C      0.37624  0.07844  0.46684     C
C      0.37624  0.57844  0.96684     C
C     0.3762612  0.30004  0.73984     C
C     0.3762612  0.80004  0.23984     C
C      0.37774  0.06024  0.28325     C
C      0.37774  0.56024  0.78325     C
C     0.3796114  0.08484  0.02814     C
C     0.3796114  0.58484  0.52814     C
C      0.38064  0.10454  0.74074     C
C      0.38064  0.60454  0.24074     C
C      0.38224  0.11434  0.50184     C
C      0.38224  0.61434  0.00184     C
C      0.38304  0.09614  0.24864     C
C      0.38304  0.59614  0.74864     C
H       0.3833   0.3616   0.9779     H
H       0.3833   0.8616   0.4779     H
H       0.3843   0.3813    0.271     H
H       0.3843   0.8813    0.771     H
H       0.3863    0.374   0.4744     H
H       0.3863    0.874   0.9744     H
H       0.3874   0.3527   0.7958     H
H       0.3874   0.8527   0.2958     H
O     0.4017117  0.25154  0.08274     O
O     0.4017117  0.75154  0.58274     O
O     0.4021817  0.26414  0.17514     O
O     0.4021817  0.76414  0.67514     O
O     0.4025716  0.26914  0.58444     O
O     0.4025716  0.76914  0.08444     O
O     0.4028217  0.25612  0.67952     O
O     0.4028217  0.75612  0.17952     O
C      0.40472  0.28604  0.05124     C
C      0.40472  0.78604  0.55124     C
N      0.40512  0.04935  0.79155     N
N      0.40512  0.54935  0.29155     N
C      0.40532  0.30544  0.19854     C
C      0.40532  0.80544  0.69854     C
N     0.4058616  0.03194  0.97354     N
N     0.4058616  0.53194  0.47354     N
C      0.40612  0.30414  0.55294     C
C      0.40612  0.80414  0.05294     C
C      0.40644  0.28464  0.71574     C
C      0.40644  0.78464  0.21574     C
N      0.40724  0.04815  0.30465     N
N      0.40724  0.54815  0.80465     N
N      0.40752  0.06304  0.44954     N
N      0.40752  0.56304  0.94954     N
C      0.41464  0.10455  0.73354     C
C      0.41464  0.60455  0.23354     C
C     0.4153616  0.08834  0.03552     C
C     0.4153616  0.58834  0.53552     C
O      0.41565  0.40369  0.61419     O
O      0.41565  0.90369  0.11419     O
C      0.41714  0.12094  0.50354     C
C      0.41714  0.62094  0.00354     C
C      0.41784  0.10484  0.25055     C
C      0.41784  0.60484  0.75055     C
O     0.4213816  0.15062  0.09374     O
O     0.4213816  0.65062  0.59374     O
O     0.4215116  0.16102  0.66812     O
O     0.4215116  0.66102  0.16812     O
O     0.4224417  0.16314  0.18754     O
O     0.4224417  0.66314  0.68754     O
O     0.4225016  0.17412  0.57012     O
O     0.4225016  0.67412  0.07012     O
C     0.428113 0.477617   0.7092     C
C     0.428113 0.977617   0.2092     C
N      0.42822  0.07155  0.76425     N
N      0.42822  0.57155  0.26425     N
N      0.43154  0.07545  0.28405     N
N      0.43154  0.57545  0.78405     N
N     0.4315912  0.05564  0.00174     N
N     0.4315912  0.55564  0.50174     N
O     0.4321417  0.30434  0.03434     O
O     0.4321417  0.80434  0.53434     O
O     0.4323817  0.33034  0.20744     O
O     0.4323817  0.83034  0.70744     O
N      0.43262  0.08874  0.47154     N
N      0.43262  0.58874  0.97154     N
H       0.4327   0.3383     0.64     H
H       0.4327   0.8383     0.14     H
O     0.4332017  0.32724  0.54284     O
O     0.4332017  0.82724  0.04284     O
O     0.4336318  0.30294  0.73234     O
O     0.4336318  0.80294  0.23234     O
O      0.43468  0.44581 0.035811     O
O      0.43468  0.94581 0.535811     O
C      0.43672  0.13554  0.70094     C
C      0.43672  0.63554  0.20094     C
C      0.43692  0.12124  0.06514     C
C      0.43692  0.62124  0.56514     C
C      0.43802  0.15454  0.53434     C
C      0.43802  0.65454  0.03434     C
C      0.43832  0.14084  0.22044     C
C      0.43832  0.64084  0.72044     C
C      0.43945  0.42321 0.587511     C
C      0.43945  0.92321 0.087511     C
Zr    0.439742 0.218792 0.133243    Zr
Zr    0.439742 0.718792 0.633243    Zr
Zr    0.440352 0.227242 0.626673    Zr
Zr    0.440352 0.727242 0.126673    Zr
C      0.44947  0.41071 0.058413     C
C      0.44947  0.91071 0.558413     C
H       0.4514   0.2103   0.0334     H
H       0.4514   0.7103   0.5334     H
H       0.4517    0.239   0.2314     H
H       0.4517    0.739   0.7314     H
O     0.4526314  0.31452  0.63712     O
O     0.4526314  0.81452  0.13712     O
O     0.4621813  0.29022  0.12422     O
O     0.4621813  0.79022  0.62422     O
N     0.463513 0.472618   0.6922     N
N     0.463513 0.972618   0.1922     N
O     0.4657316  0.22072  0.06152     O
O     0.4657316  0.72072  0.56152     O
O     0.4659316  0.24112  0.20182     O
O     0.4659316  0.74112  0.70182     O
O     0.4676817  0.13424  0.71004     O
O     0.4676817  0.63424  0.21004     O
O     0.4684416  0.11884  0.05804     O
O     0.4684416  0.61884  0.55804     O
O      0.46862  0.40414  0.58164     O
O      0.46862  0.90414  0.08164     O
O      0.46872  0.38724  0.70834     O
O      0.46872  0.88724  0.20834     O
O     0.4689817  0.16014  0.52344     O
O     0.4689817  0.66014  0.02344     O
O     0.4694417  0.14404  0.23094     O
O     0.4694417  0.64404  0.73094     O
O      0.47312  0.38074  0.05134     O
O      0.47312  0.88074  0.55134     O
O      0.47342  0.39884  0.17284     O
O      0.47342  0.89884  0.67284     O
H       0.4746   0.1292   0.6141     H
H       0.4746   0.6292   0.1141     H
O     0.4746016  0.23522  0.68122     O
O     0.4746016  0.73522  0.18122     O
O     0.4749216  0.24992  0.57662     O
O     0.4749216  0.74992  0.07662     O
C      0.48051 0.427913 0.688817     C
C      0.48051 0.927913 0.188817     C
O     0.4825114  0.16542  0.61872     O
O     0.4825114  0.66542  0.11872     O
O     0.4850913  0.17842  0.13842     O
O     0.4850913  0.67842  0.63842     O
Zr    0.486642 0.318883 0.184183    Zr
Zr    0.486642 0.818883 0.684183    Zr
Zr    0.486902 0.300223 0.058893    Zr
Zr    0.486902 0.800223 0.558893    Zr
Zr    0.487472 0.308693 0.701013    Zr
Zr    0.487472 0.808693 0.201013    Zr
Zr    0.487682 0.327103 0.574883    Zr
Zr    0.487682 0.827103 0.074883    Zr
H       0.4899   0.2815   0.8815     H
H       0.4899   0.7815   0.3815     H
N      0.49044  0.33457  0.40185     N
N      0.49044  0.83457  0.90185     N
O     0.4908118  0.31024  0.26154     O
O     0.4908118  0.81024  0.76154     O
N      0.49084  0.33147  0.35405     N
N      0.49084  0.83147  0.85405     N
O     0.4913518  0.31874  0.49664     O
O     0.4913518  0.81874  0.99664     O
O      0.49172  0.27274  0.77484     O
O      0.49172  0.77274  0.27484     O
O      0.49242  0.26684  0.98474     O
O      0.49242  0.76684  0.48474     O
C      0.49614  0.24635  0.88037     C
C      0.49614  0.74635  0.38037     C
C      0.49814  0.28647  0.41904     C
C      0.49814  0.78647  0.91904     C
C      0.49884  0.27884  0.47175     C
C      0.49884  0.77884  0.97175     C
C      0.49894  0.28287  0.34065     C
C      0.49894  0.78287  0.84065     C
C      0.49994  0.22744  0.78835     C
C      0.49994  0.72744  0.28835     C
C      0.50014  0.27264  0.28835     C
C      0.50014  0.77264  0.78835     C
C      0.50114  0.21727  0.84065     C
C      0.50114  0.71727  0.34065     C
C      0.50124  0.22124  0.97175     C
C      0.50124  0.72124  0.47175     C
C      0.50194  0.21367  0.91904     C
C      0.50194  0.71367  0.41904     C
C      0.50394  0.25375  0.38037     C
C      0.50394  0.75375  0.88037     C
O      0.50762  0.23324  0.48474     O
O      0.50762  0.73324  0.98474     O
O      0.50832  0.22734  0.27484     O
O      0.50832  0.72734  0.77484     O
O     0.5086518  0.18134  0.99664     O
O     0.5086518  0.68134  0.49664     O
O     0.5091918  0.18984  0.76154     O
O     0.5091918  0.68984  0.26154     O
N      0.50924  0.16867  0.85405     N
N      0.50924  0.66867  0.35405     N
N      0.50964  0.16557  0.90185     N
N      0.50964  0.66557  0.40185     N
H       0.5101   0.2185   0.3815     H
H       0.5101   0.7185   0.8815     H
Zr    0.512322 0.172903 0.074883    Zr
Zr    0.512322 0.672903 0.574883    Zr
Zr    0.512532 0.191313 0.201013    Zr
Zr    0.512532 0.691313 0.701013    Zr
Zr    0.513102 0.199783 0.558893    Zr
Zr    0.513102 0.699783 0.058893    Zr
Zr    0.513362 0.181123 0.684183    Zr
Zr    0.513362 0.681123 0.184183    Zr
O     0.5149113  0.32162  0.63842     O
O     0.5149113  0.82162  0.13842     O
O     0.5174914  0.33462  0.11872     O
O     0.5174914  0.83462  0.61872     O
C      0.51951 0.072113 0.188817     C
C      0.51951 0.572113 0.688817     C
O     0.5250816  0.25012  0.07662     O
O     0.5250816  0.75012  0.57662     O
H       0.5254   0.3708   0.1141     H
H       0.5254   0.8708   0.6141     H
O     0.5254016  0.26482  0.18122     O
O     0.5254016  0.76482  0.68122     O
O      0.52662  0.10124  0.67284     O
O      0.52662  0.60124  0.17284     O
O      0.52692  0.11934  0.55134     O
O      0.52692  0.61934  0.05134     O
O     0.5305617  0.35604  0.73094     O
O     0.5305617  0.85604  0.23094     O
O     0.5310217  0.33994  0.02344     O
O     0.5310217  0.83994  0.52344     O
O      0.53132  0.11284  0.20834     O
O      0.53132  0.61284  0.70834     O
O      0.53142  0.09594  0.08164     O
O      0.53142  0.59594  0.58164     O
O     0.5315616  0.38124  0.55804     O
O     0.5315616  0.88124  0.05804     O
O     0.5323217  0.36584  0.21004     O
O     0.5323217  0.86584  0.71004     O
O     0.5340716  0.25892  0.70182     O
O     0.5340716  0.75892  0.20182     O
O     0.5342716  0.27932  0.56152     O
O     0.5342716  0.77932  0.06152     O
N     0.536513 0.027418   0.1922     N
N     0.536513 0.527418   0.6922     N
O     0.5378213  0.20982  0.62422     O
O     0.5378213  0.70982  0.12422     O
O     0.5473714  0.18552  0.13712     O
O     0.5473714  0.68552  0.63712     O
H       0.5483    0.261   0.7314     H
H       0.5483    0.761   0.2314     H
H       0.5486   0.2897   0.5334     H
H       0.5486   0.7897   0.0334     H
C      0.55067  0.08931 0.558413     C
C      0.55067  0.58931 0.058413     C
Zr    0.559652 0.272762 0.126673    Zr
Zr    0.559652 0.772762 0.626673    Zr
Zr    0.560262 0.281212 0.633243    Zr
Zr    0.560262 0.781212 0.133243    Zr
C      0.56065  0.07681 0.087511     C
C      0.56065  0.57681 0.587511     C
C      0.56172  0.35924  0.72044     C
C      0.56172  0.85924  0.22044     C
C      0.56202  0.34554  0.03434     C
C      0.56202  0.84554  0.53434     C
C      0.56312  0.37884  0.56514     C
C      0.56312  0.87884  0.06514     C
C      0.56332  0.36454  0.20094     C
C      0.56332  0.86454  0.70094     C
O      0.56548  0.05421 0.535811     O
O      0.56548  0.55421 0.035811     O
O     0.5663718  0.19714  0.23234     O
O     0.5663718  0.69714  0.73234     O
O     0.5668017  0.17284  0.04284     O
O     0.5668017  0.67284  0.54284     O
H       0.5673   0.1617     0.14     H
H       0.5673   0.6617     0.64     H
N      0.56742  0.41134  0.97154     N
N      0.56742  0.91134  0.47154     N
O     0.5676217  0.16974  0.70744     O
O     0.5676217  0.66974  0.20744     O
O     0.5678617  0.19574  0.53434     O
O     0.5678617  0.69574  0.03434     O
N     0.5684112  0.44444  0.50174     N
N     0.5684112  0.94444  0.00174     N
N      0.56854  0.42465  0.78405     N
N      0.56854  0.92465  0.28405     N
N      0.57182  0.42855  0.26425     N
N      0.57182  0.92855  0.76425     N
C     0.571913 0.022417   0.2092     C
C     0.571913 0.522417   0.7092     C
O     0.5775016  0.32592  0.07012     O
O     0.5775016  0.82592  0.57012     O
O     0.5775617  0.33694  0.68754     O
O     0.5775617  0.83694  0.18754     O
O     0.5784916  0.33902  0.16812     O
O     0.5784916  0.83902  0.66812     O
O     0.5786216  0.34942  0.59374     O
O     0.5786216  0.84942  0.09374     O
C      0.58224  0.39524  0.75055     C
C      0.58224  0.89524  0.25055     C
C      0.58294  0.37914  0.00354     C
C      0.58294  0.87914  0.50354     C
O      0.58445  0.09649  0.11419     O
O      0.58445  0.59649  0.61419     O
C     0.5846416  0.41174  0.53552     C
C     0.5846416  0.91174  0.03552     C
C      0.58544  0.39555  0.23354     C
C      0.58544  0.89555  0.73354     C
N      0.59252  0.43704  0.94954     N
N      0.59252  0.93704  0.44954     N
N      0.59284  0.45195  0.80465     N
N      0.59284  0.95195  0.30465     N
C      0.59364  0.21544  0.21574     C
C      0.59364  0.71544  0.71574     C
C      0.59392  0.19594  0.05294     C
C      0.59392  0.69594  0.55294     C
N     0.5941416  0.46814  0.47354     N
N     0.5941416  0.96814  0.97354     N
C      0.59472  0.19464  0.69854     C
C      0.59472  0.69464  0.19854     C
N      0.59492  0.45075  0.29155     N
N      0.59492  0.95075  0.79155     N
C      0.59532  0.21404  0.55124     C
C      0.59532  0.71404  0.05124     C
O     0.5971817  0.24392  0.17952     O
O     0.5971817  0.74392  0.67952     O
O     0.5974316  0.23094  0.08444     O
O     0.5974316  0.73094  0.58444     O
O     0.5978217  0.23594  0.67514     O
O     0.5978217  0.73594  0.17514     O
O     0.5982917  0.24854  0.58274     O
O     0.5982917  0.74854  0.08274     O
H       0.6126   0.1473   0.2958     H
H       0.6126   0.6473   0.7958     H
H       0.6137    0.126   0.9744     H
H       0.6137    0.626   0.4744     H
H       0.6157   0.1187    0.771     H
H       0.6157   0.6187    0.271     H
H       0.6167   0.1384   0.4779     H
H       0.6167   0.6384   0.9779     H
C      0.61704  0.40394  0.74864     C
C      0.61704  0.90394  0.24864     C
C      0.61784  0.38574  0.00184     C
C      0.61784  0.88574  0.50184     C
C      0.61944  0.39554  0.24074     C
C      0.61944  0.89554  0.74074     C
C     0.6203914  0.41524  0.52814     C
C     0.6203914  0.91524  0.02814     C
C      0.62234  0.43984  0.78325     C
C      0.62234  0.93984  0.28325     C
C     0.6237412  0.20004  0.23984     C
C     0.6237412  0.70004  0.73984     C
C      0.62384  0.42164  0.96684     C
C      0.62384  0.92164  0.46684     C
C      0.62394  0.43054  0.27774     C
C      0.62394  0.93054  0.77774     C
C      0.62614  0.18054  0.02774     C
C      0.62614  0.68054  0.52774     C
C      0.62624  0.17164  0.71684     C
C      0.62624  0.67164  0.21684     C
C     0.6262612  0.45004  0.48984     C
C     0.6262612  0.95004  0.98984     C
C      0.62774  0.18984  0.53325     C
C      0.62774  0.68984  0.03325     C
C     0.6296114  0.16524  0.27814     C
C     0.6296114  0.66524  0.77814     C
C      0.63064  0.14554  0.99074     C
C      0.63064  0.64554  0.49074     C
C      0.63224  0.13574  0.75184     C
C      0.63224  0.63574  0.25184     C
C      0.63304  0.15394  0.49864     C
C      0.63304  0.65394  0.99864     C
H       0.6333   0.3884   0.7279     H
H       0.6333   0.8884   0.2279     H
H       0.6343   0.3687    0.021     H
H       0.6343   0.8687    0.521     H
H       0.6363    0.376   0.2244     H
H       0.6363    0.876   0.7244     H
H       0.6374   0.3973   0.5458     H
H       0.6374   0.8973   0.0458     H
O     0.6517117  0.49854  0.83274     O
O     0.6517117  0.99854  0.33274     O
O     0.6521817  0.48594  0.92514     O
O     0.6521817  0.98594  0.42514     O
O     0.6525716  0.48094  0.33444     O
O     0.6525716  0.98094  0.83444     O
O     0.6528217  0.49392  0.42952     O
O     0.6528217  0.99392  0.92952     O
C      0.65472  0.46404  0.80124     C
C      0.65472  0.96404  0.30124     C
N      0.65512  0.20075  0.04155     N
N      0.65512  0.70075  0.54155     N
C      0.65532  0.44464  0.94854     C
C      0.65532  0.94464  0.44854     C
N     0.6558616  0.21814  0.22354     N
N     0.6558616  0.71814  0.72354     N
C      0.65612  0.44594  0.30294     C
C      0.65612  0.94594  0.80294     C
C      0.65644  0.46544  0.46574     C
C      0.65644  0.96544  0.96574     C
N      0.65724  0.20195  0.55465     N
N      0.65724  0.70195  0.05465     N
N      0.65752  0.18704  0.69954     N
N      0.65752  0.68704  0.19954     N
C      0.66464  0.14555  0.98354     C
C      0.66464  0.64555  0.48354     C
C     0.6653616  0.16174  0.28552     C
C     0.6653616  0.66174  0.78552     C
O      0.66565  0.34649  0.36419     O
O      0.66565  0.84649  0.86419     O
C      0.66714  0.12914  0.75354     C
C      0.66714  0.62914  0.25354     C
C      0.66784  0.14524  0.50055     C
C      0.66784  0.64524  0.00055     C
O     0.6713816  0.09942  0.34374     O
O     0.6713816  0.59942  0.84374     O
O     0.6715116  0.08902  0.91812     O
O     0.6715116  0.58902  0.41812     O
O     0.6724417  0.08694  0.43754     O
O     0.6724417  0.58694  0.93754     O
O     0.6725016  0.07592  0.82012     O
O     0.6725016  0.57592  0.32012     O
C     0.678113 0.272417   0.4592     C
C     0.678113 0.772417   0.9592     C
N      0.67822  0.17855  0.01425     N
N      0.67822  0.67855  0.51425     N
N      0.68154  0.17465  0.53405     N
N      0.68154  0.67465  0.03405     N
N     0.6815912  0.19444  0.25174     N
N     0.6815912  0.69444  0.75174     N
O     0.6821417  0.44574  0.78434     O
O     0.6821417  0.94574  0.28434     O
O     0.6823817  0.41974  0.95744     O
O     0.6823817  0.91974  0.45744     O
N      0.68262  0.16134  0.72154     N
N      0.68262  0.66134  0.22154     N
H       0.6827   0.4117     0.39     H
H       0.6827   0.9117     0.89     H
O     0.6832017  0.42284  0.29284     O
O     0.6832017  0.92284  0.79284     O
O     0.6836318  0.44714  0.48234     O
O     0.6836318  0.94714  0.98234     O
O      0.68468  0.30421 0.785811     O
O      0.68468  0.80421 0.285811     O
C      0.68672  0.11454  0.95094     C
C      0.68672  0.61454  0.45094     C
C      0.68692  0.12884  0.31514     C
C      0.68692  0.62884  0.81514     C
C      0.68802  0.09554  0.78434     C
C      0.68802  0.59554  0.28434     C
C      0.68832  0.10924  0.47044     C
C      0.68832  0.60924  0.97044     C
C      0.68945  0.32681 0.337511     C
C      0.68945  0.82681 0.837511     C
Zr    0.689742 0.031212 0.383243    Zr
Zr    0.689742 0.531212 0.883243    Zr
Zr    0.690352 0.022762 0.876673    Zr
Zr    0.690352 0.522762 0.376673    Zr
C      0.69947  0.33931 0.808413     C
C      0.69947  0.83931 0.308413     C
H       0.7014   0.0397   0.2834     H
H       0.7014   0.5397   0.7834     H
H       0.7017    0.011   0.4814     H
H       0.7017    0.511   0.9814     H
O     0.7026314  0.43552  0.38712     O
O     0.7026314  0.93552  0.88712     O
O     0.7121813  0.45982  0.87422     O
O     0.7121813  0.95982  0.37422     O
N     0.713513 0.277418   0.4422     N
N     0.713513 0.777418   0.9422     N
O     0.7157316  0.02932  0.31152     O
O     0.7157316  0.52932  0.81152     O
O     0.7159316  0.00892  0.45182     O
O     0.7159316  0.50892  0.95182     O
O     0.7176817  0.11584  0.96004     O
O     0.7176817  0.61584  0.46004     O
O     0.7184416  0.13124  0.30804     O
O     0.7184416  0.63124  0.80804     O
O      0.71862  0.34594  0.33164     O
O      0.71862  0.84594  0.83164     O
O      0.71872  0.36284  0.45834     O
O      0.71872  0.86284  0.95834     O
O     0.7189817  0.08994  0.77344     O
O     0.7189817  0.58994  0.27344     O
O     0.7194417  0.10604  0.48094     O
O     0.7194417  0.60604  0.98094     O
O      0.72312  0.36934  0.80134     O
O      0.72312  0.86934  0.30134     O
O      0.72342  0.35124  0.92284     O
O      0.72342  0.85124  0.42284     O
H       0.7246   0.1208   0.8641     H
H       0.7246   0.6208   0.3641     H
O     0.7246016  0.01482  0.93122     O
O     0.7246016  0.51482  0.43122     O
O     0.7249216  0.00012  0.82662     O
O     0.7249216  0.50012  0.32662     O
C      0.73051 0.322113 0.438817     C
C      0.73051 0.822113 0.938817     C
O     0.7325114  0.08462  0.86872     O
O     0.7325114  0.58462  0.36872     O
O     0.7350913  0.07162  0.38842     O
O     0.7350913  0.57162  0.88842     O
Zr    0.736642 0.431123 0.934183    Zr
Zr    0.736642 0.931123 0.434183    Zr
Zr    0.736902 0.449783 0.808893    Zr
Zr    0.736902 0.949783 0.308893    Zr
Zr    0.737472 0.441313 0.451013    Zr
Zr    0.737472 0.941313 0.951013    Zr
Zr    0.737682 0.422903 0.324883    Zr
Zr    0.737682 0.922903 0.824883    Zr
H       0.7399   0.4685   0.6315     H
H       0.7399   0.9685   0.1315     H
N      0.74044  0.41557  0.15185     N
N      0.74044  0.91557  0.65185     N
O     0.7408118  0.43984  0.01154     O
O     0.7408118  0.93984  0.51154     O
N      0.74084  0.41867  0.10405     N
N      0.74084  0.91867  0.60405     N
O     0.7413518  0.43134  0.24664     O
O     0.7413518  0.93134  0.74664     O
O      0.74172  0.47734  0.52484     O
O      0.74172  0.97734  0.02484     O
O      0.74242  0.48324  0.73474     O
O      0.74242  0.98324  0.23474     O
C      0.74614  0.00375  0.13037     C
C      0.74614  0.50375  0.63037     C
C      0.74814  0.46367  0.16904     C
C      0.74814  0.96367  0.66904     C
C      0.74884  0.47124  0.22175     C
C      0.74884  0.97124  0.72175     C
C      0.74894  0.46727  0.09065     C
C      0.74894  0.96727  0.59065     C
C      0.74994  0.02264  0.03835     C
C      0.74994  0.52264  0.53835     C
C      0.75014  0.47744  0.03835     C
C      0.75014  0.97744  0.53835     C
C      0.75114  0.03287  0.09065     C
C      0.75114  0.53287  0.59065     C
C      0.75124  0.02884  0.22175     C
C      0.75124  0.52884  0.72175     C
C      0.75194  0.03647  0.16904     C
C      0.75194  0.53647  0.66904     C
C      0.75394  0.49635  0.13037     C
C      0.75394  0.99635  0.63037     C
O      0.75762  0.01684  0.73474     O
O      0.75762  0.51684  0.23474     O
O      0.75832  0.02274  0.52484     O
O      0.75832  0.52274  0.02484     O
O     0.7586518  0.06874  0.24664     O
O     0.7586518  0.56874  0.74664     O
O     0.7591918  0.06024  0.01154     O
O     0.7591918  0.56024  0.51154     O
N      0.75924  0.08147  0.10405     N
N      0.75924  0.58147  0.60405     N
N      0.75964  0.08457  0.15185     N
N      0.75964  0.58457  0.65185     N
H       0.7601   0.0315   0.6315     H
H       0.7601   0.5315   0.1315     H
Zr    0.762322 0.077103 0.324883    Zr
Zr    0.762322 0.577103 0.824883    Zr
Zr    0.762532 0.058693 0.451013    Zr
Zr    0.762532 0.558693 0.951013    Zr
Zr    0.763102 0.050223 0.808893    Zr
Zr    0.763102 0.550223 0.308893    Zr
Zr    0.763362 0.068883 0.934183    Zr
Zr    0.763362 0.568883 0.434183    Zr
O     0.7649113  0.42842  0.38842     O
O     0.7649113  0.92842  0.88842     O
O     0.7674914  0.41542  0.86872     O
O     0.7674914  0.91542  0.36872     O
C      0.76951 0.177913 0.438817     C
C      0.76951 0.677913 0.938817     C
O     0.7750816  0.49992  0.82662     O
O     0.7750816  0.99992  0.32662     O
H       0.7754   0.3792   0.8641     H
H       0.7754   0.8792   0.3641     H
O     0.7754016  0.48522  0.93122     O
O     0.7754016  0.98522  0.43122     O
O      0.77662  0.14884  0.92284     O
O      0.77662  0.64884  0.42284     O
O      0.77692  0.13074  0.80134     O
O      0.77692  0.63074  0.30134     O
O     0.7805617  0.39404  0.48094     O
O     0.7805617  0.89404  0.98094     O
O     0.7810217  0.41014  0.77344     O
O     0.7810217  0.91014  0.27344     O
O      0.78132  0.13724  0.45834     O
O      0.78132  0.63724  0.95834     O
O      0.78142  0.15414  0.33164     O
O      0.78142  0.65414  0.83164     O
O     0.7815616  0.36884  0.30804     O
O     0.7815616  0.86884  0.80804     O
O     0.7823217  0.38424  0.96004     O
O     0.7823217  0.88424  0.46004     O
O     0.7840716  0.49112  0.45182     O
O     0.7840716  0.99112  0.95182     O
O     0.7842716  0.47072  0.31152     O
O     0.7842716  0.97072  0.81152     O
N     0.786513 0.222618   0.4422     N
N     0.786513 0.722618   0.9422     N
O     0.7878213  0.04022  0.87422     O
O     0.7878213  0.54022  0.37422     O
O     0.7973714  0.06452  0.38712     O
O     0.7973714  0.56452  0.88712     O
H       0.7983    0.489   0.4814     H
H       0.7983    0.989   0.9814     H
H       0.7986   0.4603   0.2834     H
H       0.7986   0.9603   0.7834     H
C      0.80067  0.16071 0.808413     C
C      0.80067  0.66071 0.308413     C
Zr    0.809652 0.477242 0.876673    Zr
Zr    0.809652 0.977242 0.376673    Zr
Zr    0.810262 0.468792 0.383243    Zr
Zr    0.810262 0.968792 0.883243    Zr
C      0.81065  0.17321 0.337511     C
C      0.81065  0.67321 0.837511     C
C      0.81172  0.39084  0.47044     C
C      0.81172  0.89084  0.97044     C
C      0.81202  0.40454  0.78434     C
C      0.81202  0.90454  0.28434     C
C      0.81312  0.37124  0.31514     C
C      0.81312  0.87124  0.81514     C
C      0.81332  0.38554  0.95094     C
C      0.81332  0.88554  0.45094     C
O      0.81548  0.19581 0.785811     O
O      0.81548  0.69581 0.285811     O
O     0.8163718  0.05294  0.48234     O
O     0.8163718  0.55294  0.98234     O
O     0.8168017  0.07724  0.29284     O
O     0.8168017  0.57724  0.79284     O
H       0.8173   0.0883     0.39     H
H       0.8173   0.5883     0.89     H
N      0.81742  0.33874  0.72154     N
N      0.81742  0.83874  0.22154     N
O     0.8176217  0.08034  0.95744     O
O     0.8176217  0.58034  0.45744     O
O     0.8178617  0.05434  0.78434     O
O     0.8178617  0.55434  0.28434     O
N     0.8184112  0.30564  0.25174     N
N     0.8184112  0.80564  0.75174     N
N      0.81854  0.32545  0.53405     N
N      0.81854  0.82545  0.03405     N
N      0.82182  0.32155  0.01425     N
N      0.82182  0.82155  0.51425     N
C     0.821913 0.227617   0.4592     C
C     0.821913 0.727617   0.9592     C
O     0.8275016  0.42412  0.82012     O
O     0.8275016  0.92412  0.32012     O
O     0.8275617  0.41314  0.43754     O
O     0.8275617  0.91314  0.93754     O
O     0.8284916  0.41102  0.91812     O
O     0.8284916  0.91102  0.41812     O
O     0.8286216  0.40062  0.34374     O
O     0.8286216  0.90062  0.84374     O
C      0.83224  0.35484  0.50055     C
C      0.83224  0.85484  0.00055     C
C      0.83294  0.37094  0.75354     C
C      0.83294  0.87094  0.25354     C
O      0.83445  0.15369  0.36419     O
O      0.83445  0.65369  0.86419     O
C     0.8346416  0.33834  0.28552     C
C     0.8346416  0.83834  0.78552     C
C      0.83544  0.35455  0.98354     C
C      0.83544  0.85455  0.48354     C
N      0.84252  0.31304  0.69954     N
N      0.84252  0.81304  0.19954     N
N      0.84284  0.29815  0.55465     N
N      0.84284  0.79815  0.05465     N
C      0.84364  0.03464  0.46574     C
C      0.84364  0.53464  0.96574     C
C      0.84392  0.05414  0.30294     C
C      0.84392  0.55414  0.80294     C
N     0.8441416  0.28194  0.22354     N
N     0.8441416  0.78194  0.72354     N
C      0.84472  0.05544  0.94854     C
C      0.84472  0.55544  0.44854     C
N      0.84492  0.29935  0.04155     N
N      0.84492  0.79935  0.54155     N
C      0.84532  0.03604  0.80124     C
C      0.84532  0.53604  0.30124     C
O     0.8471817  0.00612  0.42952     O
O     0.8471817  0.50612  0.92952     O
O     0.8474316  0.01914  0.33444     O
O     0.8474316  0.51914  0.83444     O
O     0.8478217  0.01414  0.92514     O
O     0.8478217  0.51414  0.42514     O
O     0.8482917  0.00154  0.83274     O
O     0.8482917  0.50154  0.33274     O
H       0.8626   0.1027   0.5458     H
H       0.8626   0.6027   0.0458     H
H       0.8637    0.124   0.2244     H
H       0.8637    0.624   0.7244     H
H       0.8657   0.1313    0.021     H
H       0.8657   0.6313    0.521     H
H       0.8667   0.1116   0.7279     H
H       0.8667   0.6116   0.2279     H
C      0.86704  0.34614  0.49864     C
C      0.86704  0.84614  0.99864     C
C      0.86784  0.36434  0.75184     C
C      0.86784  0.86434  0.25184     C
C      0.86944  0.35454  0.99074     C
C      0.86944  0.85454  0.49074     C
C     0.8703914  0.33484  0.27814     C
C     0.8703914  0.83484  0.77814     C
C      0.87234  0.31024  0.53325     C
C      0.87234  0.81024  0.03325     C
C     0.8737412  0.05004  0.48984     C
C     0.8737412  0.55004  0.98984     C
C      0.87384  0.32844  0.71684     C
C      0.87384  0.82844  0.21684     C
C      0.87394  0.31954  0.02774     C
C      0.87394  0.81954  0.52774     C
C      0.87614  0.06954  0.27774     C
C      0.87614  0.56954  0.77774     C
C      0.87624  0.07844  0.96684     C
C      0.87624  0.57844  0.46684     C
C     0.8762612  0.30004  0.23984     C
C     0.8762612  0.80004  0.73984     C
C      0.87774  0.06024  0.78325     C
C      0.87774  0.56024  0.28325     C
C     0.8796114  0.08484  0.52814     C
C     0.8796114  0.58484  0.02814     C
C      0.88064  0.10454  0.24074     C
C      0.88064  0.60454  0.74074     C
C      0.88224  0.11434  0.00184     C
C      0.88224  0.61434  0.50184     C
C      0.88304  0.09614  0.74864     C
C      0.88304  0.59614  0.24864     C
H       0.8833   0.3616   0.4779     H
H       0.8833   0.8616   0.9779     H
H       0.8843   0.3813    0.771     H
H       0.8843   0.8813    0.271     H
H       0.8863    0.374   0.9744     H
H       0.8863    0.874   0.4744     H
H       0.8874   0.3527   0.2958     H
H       0.8874   0.8527   0.7958     H
O     0.9017117  0.25154  0.58274     O
O     0.9017117  0.75154  0.08274     O
O     0.9021817  0.26414  0.67514     O
O     0.9021817  0.76414  0.17514     O
O     0.9025716  0.26914  0.08444     O
O     0.9025716  0.76914  0.58444     O
O     0.9028217  0.25612  0.17952     O
O     0.9028217  0.75612  0.67952     O
C      0.90472  0.28604  0.55124     C
C      0.90472  0.78604  0.05124     C
N      0.90512  0.04935  0.29155     N
N      0.90512  0.54935  0.79155     N
C      0.90532  0.30544  0.69854     C
C      0.90532  0.80544  0.19854     C
N     0.9058616  0.03194  0.47354     N
N     0.9058616  0.53194  0.97354     N
C      0.90612  0.30414  0.05294     C
C      0.90612  0.80414  0.55294     C
C      0.90644  0.28464  0.21574     C
C      0.90644  0.78464  0.71574     C
N      0.90724  0.04815  0.80465     N
N      0.90724  0.54815  0.30465     N
N      0.90752  0.06304  0.94954     N
N      0.90752  0.56304  0.44954     N
C      0.91464  0.10455  0.23354     C
C      0.91464  0.60455  0.73354     C
C     0.9153616  0.08834  0.53552     C
C     0.9153616  0.58834  0.03552     C
O      0.91565  0.40369  0.11419     O
O      0.91565  0.90369  0.61419     O
C      0.91714  0.12094  0.00354     C
C      0.91714  0.62094  0.50354     C
C      0.91784  0.10484  0.75055     C
C      0.91784  0.60484  0.25055     C
O     0.9213816  0.15062  0.59374     O
O     0.9213816  0.65062  0.09374     O
O     0.9215116  0.16102  0.16812     O
O     0.9215116  0.66102  0.66812     O
O     0.9224417  0.16314  0.68754     O
O     0.9224417  0.66314  0.18754     O
O     0.9225016  0.17412  0.07012     O
O     0.9225016  0.67412  0.57012     O
C     0.928113 0.477617   0.2092     C
C     0.928113 0.977617   0.7092     C
N      0.92822  0.07155  0.26425     N
N      0.92822  0.57155  0.76425     N
N      0.93154  0.07545  0.78405     N
N      0.93154  0.57545  0.28405     N
N     0.9315912  0.05564  0.50174     N
N     0.9315912  0.55564  0.00174     N
O     0.9321417  0.30434  0.53434     O
O     0.9321417  0.80434  0.03434     O
O     0.9323817  0.33034  0.70744     O
O     0.9323817  0.83034  0.20744     O
N      0.93262  0.08874  0.97154     N
N      0.93262  0.58874  0.47154     N
H       0.9327   0.3383     0.14     H
H       0.9327   0.8383     0.64     H
O     0.9332017  0.32724  0.04284     O
O     0.9332017  0.82724  0.54284     O
O     0.9336318  0.30294  0.23234     O
O     0.9336318  0.80294  0.73234     O
O      0.93468  0.44581 0.535811     O
O      0.93468  0.94581 0.035811     O
C      0.93672  0.13554  0.20094     C
C      0.93672  0.63554  0.70094     C
C      0.93692  0.12124  0.56514     C
C      0.93692  0.62124  0.06514     C
C      0.93802  0.15454  0.03434     C
C      0.93802  0.65454  0.53434     C
C      0.93832  0.14084  0.72044     C
C      0.93832  0.64084  0.22044     C
C      0.93945  0.42321 0.087511     C
C      0.93945  0.92321 0.587511     C
Zr    0.939742 0.218792 0.633243    Zr
Zr    0.939742 0.718792 0.133243    Zr
Zr    0.940352 0.227242 0.126673    Zr
Zr    0.940352 0.727242 0.626673    Zr
C      0.94947  0.41071 0.558413     C
C      0.94947  0.91071 0.058413     C
H       0.9514   0.2103   0.5334     H
H       0.9514   0.7103   0.0334     H
H       0.9517    0.239   0.7314     H
H       0.9517    0.739   0.2314     H
O     0.9526314  0.31452  0.13712     O
O     0.9526314  0.81452  0.63712     O
O     0.9621813  0.29022  0.62422     O
O     0.9621813  0.79022  0.12422     O
N     0.963513 0.472618   0.1922     N
N     0.963513 0.972618   0.6922     N
O     0.9657316  0.22072  0.56152     O
O     0.9657316  0.72072  0.06152     O
O     0.9659316  0.24112  0.70182     O
O     0.9659316  0.74112  0.20182     O
O     0.9676817  0.13424  0.21004     O
O     0.9676817  0.63424  0.71004     O
O     0.9684416  0.11884  0.55804     O
O     0.9684416  0.61884  0.05804     O
O      0.96862  0.40414  0.08164     O
O      0.96862  0.90414  0.58164     O
O      0.96872  0.38724  0.20834     O
O      0.96872  0.88724  0.70834     O
O     0.9689817  0.16014  0.02344     O
O     0.9689817  0.66014  0.52344     O
O     0.9694417  0.14404  0.73094     O
O     0.9694417  0.64404  0.23094     O
O      0.97312  0.38074  0.55134     O
O      0.97312  0.88074  0.05134     O
O      0.97342  0.39884  0.67284     O
O      0.97342  0.89884  0.17284     O
H       0.9746   0.1292   0.1141     H
H       0.9746   0.6292   0.6141     H
O     0.9746016  0.23522  0.18122     O
O     0.9746016  0.73522  0.68122     O
O     0.9749216  0.24992  0.07662     O
O     0.9749216  0.74992  0.57662     O
C      0.98051 0.427913 0.188817     C
C      0.98051 0.927913 0.688817     C
O     0.9825114  0.16542  0.11872     O
O     0.9825114  0.66542  0.61872     O
O     0.9850913  0.17842  0.63842     O
O     0.9850913  0.67842  0.13842     O
Zr    0.986642 0.318883 0.684183    Zr
Zr    0.986642 0.818883 0.184183    Zr
Zr    0.986902 0.300223 0.558893    Zr
Zr    0.986902 0.800223 0.058893    Zr
Zr    0.987472 0.308693 0.201013    Zr
Zr    0.987472 0.808693 0.701013    Zr
Zr    0.987682 0.327103 0.074883    Zr
Zr    0.987682 0.827103 0.574883    Zr
H       0.9899   0.2815   0.3815     H
H       0.9899   0.7815   0.8815     H
N      0.99044  0.33457  0.90185     N
N      0.99044  0.83457  0.40185     N
O     0.9908118  0.31024  0.76154     O
O     0.9908118  0.81024  0.26154     O
N      0.99084  0.33147  0.85405     N
N      0.99084  0.83147  0.35405     N
O     0.9913518  0.31874  0.99664     O
O     0.9913518  0.81874  0.49664     O
O      0.99172  0.27274  0.27484     O
O      0.99172  0.77274  0.77484     O
O      0.99242  0.26684  0.48474     O
O      0.99242  0.76684  0.98474     O
C      0.99614  0.24635  0.38037     C
C      0.99614  0.74635  0.88037     C
C      0.99814  0.28647  0.91904     C
C      0.99814  0.78647  0.41904     C
C      0.99884  0.27884  0.97175     C
C      0.99884  0.77884  0.47175     C
C      0.99894  0.28287  0.84065     C
C      0.99894  0.78287  0.34065     C
C      0.99994  0.22744  0.28835     C
C      0.99994  0.72744  0.78835     C
