data_I
_chemical_name_common  '/home/zhangsd/repos/MofS-CGCNN/ML/data/WS24/clean_cifs/MOF-804'
_cell_length_a 14.67267
_cell_length_b 14.67267
_cell_length_c 14.67267
_cell_angle_alpha 60.00000
_cell_angle_beta  60.00000
_cell_angle_gamma 60.00000
_space_group_name_H-M_alt      'P 1'


loop_
_space_group_symop_operation_xyz
  'x, y, z' 

loop_
_atom_site_label
_atom_site_fract_x
_atom_site_fract_y
_atom_site_fract_z
_atom_site_type_symbol
O     -0.5998922939311291 0.1700806487205585 -0.15592054339239642     O
O     -0.5998922939311291 0.1700806487205585 0.5857321886029669     O
H     -0.5460325625709872 0.21505293812583964 0.5313964136085944     H
H     -0.5460325625709872 0.21505293812583967 -0.2004167891634467     H
H     -0.46860358639140576 -0.20041678916344668 0.21505293812583964     H
H     -0.4686035863914053 -0.2004167891634466 0.4539674374290124     H
C     -0.4596061584069731 0.44630376161666524 -0.07574972047624003     C
C     -0.45960615840697305 -0.07574972047624004 0.08905211726654794     C
C     -0.45960615840697305 -0.07574972047624001 0.4463037616166652     C
C     -0.45960615840697305 0.08905211726654792 -0.07574972047624005     C
C     -0.45960615840697305 0.08905211726654794 0.4463037616166652     C
C     -0.459606158406973 0.4463037616166652 0.08905211726654794     C
H     -0.42039176544175244 0.1523792566415998 -0.13921645142072733     H
H     -0.4203917654417524 0.15237925664159974 0.40722896022087995     H
H     -0.42039176544175233 0.40722896022087995 0.15237925664159976     H
O     -0.4142678113970331 -0.15592054339239647 0.17008064872055856     O
O     -0.41426781139703284 -0.15592054339239628 0.4001077060688708     O
C     -0.41186764687610616 0.39944212669512663 0.006212760090489745     C
C     -0.4118676468761061 0.006212760090489738 0.39944212669512674     C
C     -0.41186764687610605 0.006212760090489745 0.0062127600904897315     C
C     -0.30881656826982623 0.3007202708326165 0.004048148718604872     C
C     -0.3088165682698262 0.0040481487186048715 0.3007202708326165     C
C     -0.3088165682698261 0.004048148718604874 0.004048148718604868     C
O     -0.2672472220702279 -0.07472637229222975 0.26208126393308806     O
O     -0.2672472220702279 0.0798923304293696 -0.07472637229222978     O
O     -0.2672472220702279 0.0798923304293696 0.26208126393308806     O
O     -0.2672472220702279 0.26208126393308806 -0.07472637229222975     O
O     -0.2672472220702279 0.26208126393308806 0.07989233042936959     O
O     -0.26724722207022783 -0.07472637229222975 0.07989233042936958     O
H     -0.20041678916344663 0.4539674374290127 0.21505293812583964     H
H     -0.20041678916344663 0.45396743742901285 -0.4686035863914058     H
H     -0.20041678916344657 0.21505293812583973 0.4539674374290126     H
O     -0.1559205433923964 0.400107706068871 -0.41426781139703317     O
O     -0.1559205433923963 0.4001077060688709 0.17008064872055847     O
O     -0.15592054339239628 0.1700806487205585 0.40010770606887086     O
O     -0.15125375508900615 0.050417918363002065 0.05041791836300206     O
H     -0.13921645142072736 -0.42039176544175244 0.15237925664159976     H
H     -0.13921645142072733 -0.4203917654417525 0.40722896022088     H
H     -0.13921645142072728 0.15237925664159976 -0.42039176544175244     H
Zr    -0.11979582666147053 -0.11979582666147053 0.11979582666147053    Zr
Zr    -0.11979582666147053 0.11979582666147054 0.11979582666147053    Zr
Zr    -0.11979582666147051 0.11979582666147053 -0.11979582666147053    Zr
H     -0.09439580954463428 -0.09439580954463428 0.2831874286339028     H
H     -0.09439580954463428 0.2831874286339028 -0.09439580954463428     H
H     -0.09439580954463425 -0.09439580954463425 -0.09439580954463428     H
C     -0.07574972047624007 -0.4596061584069731 0.08905211726654794     C
C     -0.07574972047624004 0.08905211726654796 -0.45960615840697316     C
C     -0.07574972047624004 0.08905211726654796 0.4463037616166652     C
C     -0.07574972047624004 0.4463037616166652 -0.4596061584069731     C
C     -0.07574972047624003 -0.45960615840697305 0.4463037616166652     C
C     -0.07574972047624001 0.4463037616166652 0.08905211726654792     C
O     -0.07472637229222977 -0.2672472220702279 0.26208126393308806     O
O     -0.07472637229222977 0.0798923304293696 0.26208126393308806     O
O     -0.07472637229222977 0.26208126393308806 0.07989233042936959     O
O     -0.07472637229222975 -0.26724722207022783 0.07989233042936958     O
O     -0.07472637229222974 0.0798923304293696 -0.2672472220702279     O
O     -0.07472637229222974 0.26208126393308806 -0.2672472220702279     O
O     -0.06730802701012738 -0.06730802701012738 0.2019240810303821     O
O     -0.06730802701012738 -0.06730802701012736 -0.06730802701012736     O
O     -0.06730802701012736 0.20192408103038212 -0.06730802701012736     O
C     0.00404814871860483 0.0040481487186048715 0.3007202708326165     C
C     0.004048148718604842 0.3007202708326165 0.004048148718604875     C
C     0.004048148718604844 -0.30881656826982623 0.3007202708326165     C
C     0.004048148718604844 0.3007202708326165 -0.30881656826982623     C
C     0.004048148718604845 -0.30881656826982623 0.004048148718604868     C
C     0.004048148718604858 0.0040481487186048715 -0.30881656826982623     C
C     0.0062127600904897315 -0.41186764687610616 0.0062127600904897315     C
C     0.006212760090489738 -0.41186764687610616 0.39944212669512674     C
C     0.006212760090489738 0.006212760090489738 -0.4118676468761062     C
C     0.006212760090489738 0.006212760090489738 0.39944212669512674     C
C     0.006212760090489754 0.39944212669512663 0.006212760090489745     C
C     0.006212760090489766 0.3994421266951267 -0.4118676468761062     C
O     0.05041791836300205 0.050417918363002065 0.05041791836300206     O
O     0.050417918363002065 -0.15125375508900618 0.05041791836300205     O
O     0.050417918363002065 0.05041791836300205 -0.15125375508900618     O
O     0.07989233042936957 -0.26724722207022783 -0.07472637229222978     O
O     0.07989233042936958 -0.2672472220702279 0.26208126393308806     O
O     0.07989233042936958 -0.07472637229222975 0.26208126393308806     O
O     0.07989233042936958 0.26208126393308806 -0.07472637229222975     O
O     0.07989233042936959 -0.07472637229222974 -0.2672472220702279     O
O     0.0798923304293696 0.26208126393308806 -0.2672472220702279     O
C     0.0890521172665479 -0.4596061584069731 -0.07574972047624005     C
C     0.08905211726654791 -0.07574972047624003 0.44630376161666524     C
C     0.08905211726654792 -0.07574972047624004 -0.4596061584069731     C
C     0.08905211726654796 -0.45960615840697305 0.4463037616166652     C
C     0.08905211726654798 0.44630376161666524 -0.45960615840697316     C
C     0.08905211726654799 0.4463037616166652 -0.07574972047624001     C
Zr    0.11979582666147051 -0.11979582666147053 0.11979582666147053    Zr
Zr    0.11979582666147053 -0.11979582666147054 -0.11979582666147053    Zr
Zr    0.11979582666147053 0.11979582666147053 -0.11979582666147053    Zr
H     0.15237925664159965 0.40722896022088 -0.13921645142072733     H
H     0.1523792566415997 -0.13921645142072733 0.40722896022088     H
H     0.1523792566415997 0.40722896022088007 -0.42039176544175244     H
O     0.17008064872055834 0.5857321886029669 -0.1559205433923965     O
O     0.17008064872055842 -0.15592054339239644 0.585732188602967     O
O     0.17008064872055859 0.5857321886029669 -0.5998922939311291     O
O     0.20192408103038206 -0.06730802701012736 -0.06730802701012736     O
H     0.21505293812583948 0.5313964136085945 -0.20041678916344677     H
H     0.21505293812583956 -0.20041678916344674 0.5313964136085944     H
H     0.2150529381258397 0.5313964136085942 -0.5460325625709873     H
O     0.262081263933088 -0.26724722207022783 -0.07472637229222978     O
O     0.262081263933088 -0.26724722207022783 0.07989233042936958     O
O     0.262081263933088 0.07989233042936958 -0.07472637229222975     O
O     0.26208126393308806 -0.07472637229222977 0.07989233042936959     O
O     0.26208126393308806 -0.07472637229222974 -0.2672472220702279     O
O     0.26208126393308806 0.0798923304293696 -0.2672472220702279     O
H     0.2831874286339027 -0.09439580954463425 -0.09439580954463428     H
C     0.30072027083261643 -0.30881656826982623 0.004048148718604865     C
C     0.3007202708326165 0.004048148718604868 0.004048148718604875     C
C     0.3007202708326165 0.0040481487186048715 -0.30881656826982623     C
C     0.39944212669512663 -0.4118676468761062 0.0062127600904897315     C
C     0.3994421266951267 0.0062127600904897315 0.006212760090489745     C
C     0.3994421266951267 0.006212760090489738 -0.4118676468761062     C
O     0.40010770606887114 -0.41426781139703295 0.17008064872055836     O
H     0.40722896022087984 -0.13921645142072733 -0.42039176544175244     H
H     0.40722896022087984 -0.13921645142072733 0.15237925664159976     H
H     0.4072289602208799 -0.4203917654417524 -0.13921645142072733     H
C     0.44630376161666513 -0.4596061584069731 -0.07574972047624004     C
C     0.44630376161666513 -0.07574972047624004 0.08905211726654792     C
C     0.44630376161666513 0.08905211726654795 -0.07574972047624004     C
C     0.4463037616166652 -0.07574972047624004 -0.4596061584069731     C
C     0.4463037616166652 0.08905211726654798 -0.45960615840697316     C
C     0.44630376161666524 -0.4596061584069731 0.08905211726654792     C
H     0.45396743742901297 -0.46860358639140554 0.21505293812583945     H
H     0.5313964136085947 -0.5460325625709874 -0.20041678916344677     H
O     0.5857321886029673 -0.5998922939311291 -0.15592054339239642     O
