data_I
_chemical_name_common  '/home/zhangsd/repos/MofS-CGCNN/ML/data/WS24/clean_cifs/MUTNAQ'
_cell_length_a  7.93410
_cell_length_b 11.55000
_cell_length_c 18.11570
_cell_angle_alpha 90.00000
_cell_angle_beta  90.00000
_cell_angle_gamma 90.00000
_space_group_name_H-M_alt      'P 1'


loop_
_space_group_symop_operation_xyz
  'x, y, z' 

loop_
_atom_site_label
_atom_site_fract_x
_atom_site_fract_y
_atom_site_fract_z
_atom_site_type_symbol
Ag         0.0      0.0  0.40102    Ag
Ag         0.0      0.0  0.59898    Ag
H        0.027   0.1978   0.3063     H
H        0.027   0.1978   0.6937     H
N       0.0618   0.1696  0.46096     N
N       0.0618   0.1696  0.53904     N
H       0.0752   0.2838   0.1922     H
H       0.0752   0.2838   0.8078     H
C       0.0852   0.2696  0.30375     C
C       0.0852   0.2696  0.69625     C
C       0.1126   0.3211    0.236     C
C       0.1126   0.3211    0.764     C
C       0.1152   0.2707  0.44081     C
C       0.1152   0.2707  0.55919     C
C       0.1416   0.3214  0.36792     C
C       0.1416   0.3214  0.63208     C
O         0.15    0.339      0.5     O
H        0.183    0.455    0.132     H
H        0.183    0.455    0.868     H
H       0.1926   0.0524   0.2065     H
H       0.1926   0.0524   0.7935     H
C        0.195   0.4275  0.23157     C
C        0.195   0.4275  0.76843     C
H         0.21     0.55    0.167     H
H         0.21     0.55    0.833     H
C       0.2251   0.4276   0.3634     C
C       0.2251   0.4276   0.6366     C
N       0.2265   0.4823  0.16309     N
N       0.2265   0.4823  0.83691     N
H       0.2356   0.9641   0.0929     H
H       0.2356   0.9641   0.9071     H
C       0.2491     0.98   0.2041     C
C       0.2491     0.98   0.7959     C
C       0.2509     0.48   0.2959     C
C       0.2509     0.48   0.7041     C
H       0.2644   0.4641   0.4071     H
H       0.2644   0.4641   0.5929     H
N       0.2735   0.9823  0.33691     N
N       0.2735   0.9823  0.66309     N
C       0.2749   0.9276   0.1366     C
C       0.2749   0.9276   0.8634     C
H         0.29     0.05    0.333     H
H         0.29     0.05    0.667     H
C        0.305   0.9275  0.26843     C
C        0.305   0.9275  0.73157     C
H       0.3074   0.5524   0.2935     H
H       0.3074   0.5524   0.7065     H
H        0.317    0.955    0.368     H
H        0.317    0.955    0.632     H
O         0.35    0.839      0.0     O
C       0.3584   0.8214  0.13208     C
C       0.3584   0.8214  0.86792     C
C       0.3848   0.7707  0.05919     C
C       0.3848   0.7707  0.94081     C
C       0.3874   0.8211    0.264     C
C       0.3874   0.8211    0.736     C
C       0.4148   0.7696  0.19625     C
C       0.4148   0.7696  0.80375     C
H       0.4248   0.7838   0.3078     H
H       0.4248   0.7838   0.6922     H
N       0.4382   0.6696  0.03904     N
N       0.4382   0.6696  0.96096     N
H        0.473   0.6978   0.1937     H
H        0.473   0.6978   0.8063     H
Ag         0.5      0.5  0.09898    Ag
Ag         0.5      0.5  0.90102    Ag
H        0.527   0.3022   0.1937     H
H        0.527   0.3022   0.8063     H
N       0.5618   0.3304  0.03904     N
N       0.5618   0.3304  0.96096     N
H       0.5752   0.2162   0.3078     H
H       0.5752   0.2162   0.6922     H
C       0.5852   0.2304  0.19625     C
C       0.5852   0.2304  0.80375     C
C       0.6126   0.1789    0.264     C
C       0.6126   0.1789    0.736     C
C       0.6152   0.2293  0.05919     C
C       0.6152   0.2293  0.94081     C
C       0.6416   0.1786  0.13208     C
C       0.6416   0.1786  0.86792     C
O         0.65    0.161      0.0     O
H        0.683    0.045    0.368     H
H        0.683    0.045    0.632     H
H       0.6926   0.4476   0.2935     H
H       0.6926   0.4476   0.7065     H
C        0.695   0.0725  0.26843     C
C        0.695   0.0725  0.73157     C
H         0.71     0.95    0.333     H
H         0.71     0.95    0.667     H
C       0.7251   0.0724   0.1366     C
C       0.7251   0.0724   0.8634     C
N       0.7265   0.0177  0.33691     N
N       0.7265   0.0177  0.66309     N
H       0.7356   0.5359   0.4071     H
H       0.7356   0.5359   0.5929     H
C       0.7491     0.52   0.2959     C
C       0.7491     0.52   0.7041     C
C       0.7509     0.02   0.2041     C
C       0.7509     0.02   0.7959     C
H       0.7644   0.0359   0.0929     H
H       0.7644   0.0359   0.9071     H
N       0.7735   0.5177  0.16309     N
N       0.7735   0.5177  0.83691     N
C       0.7749   0.5724   0.3634     C
C       0.7749   0.5724   0.6366     C
H         0.79     0.45    0.167     H
H         0.79     0.45    0.833     H
C        0.805   0.5725  0.23157     C
C        0.805   0.5725  0.76843     C
H       0.8074   0.9476   0.2065     H
H       0.8074   0.9476   0.7935     H
H        0.817    0.545    0.132     H
H        0.817    0.545    0.868     H
O         0.85    0.661      0.5     O
C       0.8584   0.6786  0.36792     C
C       0.8584   0.6786  0.63208     C
C       0.8848   0.7293  0.44081     C
C       0.8848   0.7293  0.55919     C
C       0.8874   0.6789    0.236     C
C       0.8874   0.6789    0.764     C
C       0.9148   0.7304  0.30375     C
C       0.9148   0.7304  0.69625     C
H       0.9248   0.7162   0.1922     H
H       0.9248   0.7162   0.8078     H
N       0.9382   0.8304  0.46096     N
N       0.9382   0.8304  0.53904     N
H        0.973   0.8022   0.3063     H
H        0.973   0.8022   0.6937     H
