data_I
_chemical_name_common  '/home/zhangsd/repos/MofS-CGCNN/ML/data/WS24/clean_cifs/NACYOG'
_cell_length_a  9.12670
_cell_length_b 15.36100
_cell_length_c 17.61000
_cell_angle_alpha 90.00000
_cell_angle_beta  90.00000
_cell_angle_gamma 93.06000
_space_group_name_H-M_alt      'P 1'


loop_
_space_group_symop_operation_xyz
  'x, y, z' 

loop_
_atom_site_label
_atom_site_fract_x
_atom_site_fract_y
_atom_site_fract_z
_atom_site_type_symbol
C       0.0055   0.1827    0.774     C
C       0.0055   0.6827    0.726     C
O       0.0146  0.41792  0.08768     O
O       0.0146  0.91792  0.41232     O
N        0.016   0.2322   0.2681     N
N        0.016   0.7322   0.2319     N
P      0.04823  0.49277   0.8953     P
P      0.04823  0.99277   0.6047     P
O       0.0491   0.0808  0.43022     O
O       0.0491   0.5808  0.06978     O
V      0.07003  0.16758  0.51176     V
V      0.07003  0.66758  0.98824     V
O        0.071   0.4785  0.81133     O
O        0.071   0.9785  0.68867     O
H        0.088   0.4406   0.2758     H
H        0.088   0.9406   0.2242     H
H       0.1031   0.1649   0.7793     H
H       0.1031   0.6649   0.7207     H
C       0.1079   0.3807   0.2727     C
C       0.1079   0.8807   0.2273     C
C       0.1545   0.2079   0.2618     C
C       0.1545   0.7079   0.2382     C
O       0.1549  0.23909  0.59997     O
O       0.1549  0.73909  0.90003     O
H       0.1709   0.1475   0.2578     H
H       0.1709   0.6475   0.2422     H
Cd     0.17945  0.36591  0.75685    Cd
Cd     0.17945  0.86591  0.74315    Cd
H       0.2174   0.4711   0.9945     H
H       0.2174   0.9711   0.5055     H
C       0.2267   0.4991    0.944     C
C       0.2267   0.9991    0.556     C
O       0.2358  0.22609   0.4525     O
O       0.2358  0.72609   0.0475     O
C       0.2509   0.3556   0.2667     C
C       0.2509   0.8556   0.2333     C
C       0.2632   0.2159   0.6397     C
C       0.2632   0.7159   0.8603     C
C       0.2742   0.2668   0.2609     C
C       0.2742   0.7668   0.2391     C
N       0.2758  0.09255  0.54732     N
N       0.2758  0.59255  0.95268     N
H       0.2785   0.0097   0.3035     H
H       0.2785   0.5097   0.1965     H
H       0.2939    0.036   0.8271     H
H       0.2939    0.536   0.6729     H
H       0.2996   0.4682    0.914     H
H       0.2996   0.9682    0.586     H
H       0.3093   0.0883   0.6612     H
H       0.3093   0.5883   0.8388     H
O       0.3133  0.25765   0.6956     O
O       0.3133  0.75765   0.8044     O
C       0.3306   0.1307   0.6198     C
C       0.3306   0.6307   0.8802     C
C        0.362   0.1953    0.447     C
C        0.362   0.6953    0.053     C
C       0.3659   0.4984   0.2232     C
C       0.3659   0.9984   0.2768     C
H        0.368   0.0604   0.4467     H
H        0.368   0.5604   0.0533     H
H       0.3708   0.2472   0.2565     H
H       0.3708   0.7472   0.2435     H
C       0.3753   0.4219   0.2649     C
C       0.3753   0.9219   0.2351     C
C       0.3814   0.0275   0.7995     C
C       0.3814   0.5275   0.7005     C
C        0.382   0.1075   0.4849     C
C        0.382   0.6075   0.0151     C
N       0.3892   0.4548  0.74179     N
N       0.3892   0.9548  0.75821     N
H       0.4384   0.1408   0.6165     H
H       0.4384   0.6408   0.8835     H
O       0.4663   0.2308  0.41166     O
O       0.4663   0.7308  0.08834     O
H       0.4781   0.1094   0.3077     H
H       0.4781   0.6094   0.1923     H
H       0.4831   0.1059    0.505     H
H       0.4831   0.6059    0.995     H
H       0.4845   0.1423   0.8332     H
H       0.4845   0.6423   0.6668     H
C       0.4853   0.0576   0.2788     C
C       0.4853   0.5576   0.2212     C
C        0.495    0.091    0.804     C
C        0.495    0.591    0.696     C
C        0.505    0.409    0.304     C
C        0.505    0.909    0.196     C
C       0.5147   0.4424   0.7788     C
C       0.5147   0.9424   0.7212     C
H       0.5155   0.3577   0.3332     H
H       0.5155   0.8577   0.1668     H
H       0.5169   0.3941    0.005     H
H       0.5169   0.8941    0.495     H
H       0.5219   0.3906   0.8077     H
H       0.5219   0.8906   0.6923     H
O       0.5337   0.2692  0.91166     O
O       0.5337   0.7692  0.58834     O
H       0.5616   0.3592   0.1165     H
H       0.5616   0.8592   0.3835     H
N       0.6108   0.0452  0.24179     N
N       0.6108   0.5452  0.25821     N
C        0.618   0.3925   0.9849     C
C        0.618   0.8925   0.5151     C
C       0.6186   0.4725   0.2995     C
C       0.6186   0.9725   0.2005     C
C       0.6247   0.0781   0.7649     C
C       0.6247   0.5781   0.7351     C
H       0.6292   0.2528   0.7565     H
H       0.6292   0.7528   0.7435     H
H        0.632   0.4396   0.9467     H
H        0.632   0.9396   0.5533     H
C       0.6341   0.0016   0.7232     C
C       0.6341   0.5016   0.7768     C
C        0.638   0.3047    0.947     C
C        0.638   0.8047    0.553     C
C       0.6694   0.3693   0.1198     C
C       0.6694   0.8693   0.3802     C
O       0.6867  0.24235   0.1956     O
O       0.6867  0.74235   0.3044     O
H       0.6907   0.4117   0.1612     H
H       0.6907   0.9117   0.3388     H
H       0.7004   0.0318    0.414     H
H       0.7004   0.5318    0.086     H
H       0.7061    0.464   0.3271     H
H       0.7061    0.964   0.1729     H
H       0.7215   0.4903   0.8035     H
H       0.7215   0.9903   0.6965     H
N       0.7242  0.40745  0.04732     N
N       0.7242  0.90745  0.45268     N
C       0.7258   0.2332   0.7609     C
C       0.7258   0.7332   0.7391     C
C       0.7368   0.2841   0.1397     C
C       0.7368   0.7841   0.3603     C
C       0.7491   0.1444   0.7667     C
C       0.7491   0.6444   0.7333     C
O       0.7642  0.27391   0.9525     O
O       0.7642  0.77391   0.5475     O
C       0.7733   0.0009    0.444     C
C       0.7733   0.5009    0.056     C
H       0.7826   0.0289   0.4945     H
H       0.7826   0.5289   0.0055     H
Cd     0.82055  0.13409  0.25685    Cd
Cd     0.82055  0.63409  0.24315    Cd
H       0.8291   0.3525   0.7578     H
H       0.8291   0.8525   0.7422     H
O       0.8451  0.26091  0.09997     O
O       0.8451  0.76091  0.40003     O
C       0.8455   0.2921   0.7618     C
C       0.8455   0.7921   0.7382     C
C       0.8921   0.1193   0.7727     C
C       0.8921   0.6193   0.7273     C
H       0.8969   0.3351   0.2793     H
H       0.8969   0.8351   0.2207     H
H        0.912   0.0594   0.7758     H
H        0.912   0.5594   0.7242     H
O        0.929   0.0215  0.31133     O
O        0.929   0.5215  0.18867     O
V      0.92997  0.33242  0.01176     V
V      0.92997  0.83242  0.48824     V
O       0.9509   0.4192  0.93022     O
O       0.9509   0.9192  0.56978     O
P      0.95177  0.00723   0.3953     P
P      0.95177  0.50723   0.1047     P
N        0.984   0.2678   0.7681     N
N        0.984   0.7678   0.7319     N
O       0.9854  0.08208  0.58768     O
O       0.9854  0.58208  0.91232     O
C       0.9945   0.3173    0.274     C
C       0.9945   0.8173    0.226     C
