data_I
_chemical_name_common  '/home/zhangsd/repos/MofS-CGCNN/ML/data/WS24/clean_cifs/Ni-DMOF'
_cell_length_a 10.92882
_cell_length_b 10.92882
_cell_length_c  9.60841
_cell_angle_alpha 90.00000
_cell_angle_beta  90.00000
_cell_angle_gamma 90.00000
_space_group_name_H-M_alt      'P 1'


loop_
_space_group_symop_operation_xyz
  'x, y, z' 

loop_
_atom_site_label
_atom_site_fract_x
_atom_site_fract_y
_atom_site_fract_z
_atom_site_type_symbol
Ni        -0.5      0.5 -0.150057    Ni
Ni        -0.5      0.5 0.150063    Ni
O     -0.3176684  0.48388 -0.1154283     O
O     -0.3176684  0.48388 0.1154317     O
C     -0.26478      0.5      0.0     C
C     -0.12748      0.5      0.0     C
H     -0.112484      0.5 0.220514     H
H     -0.112478      0.5 -0.220478     H
C     -0.0633382      0.5 -0.12188     C
C     -0.0633382      0.5  0.12192     C
C     0.0633418      0.5 -0.12188     C
C     0.0633418      0.5  0.12192     C
H     0.112471      0.5 -0.220485     H
H     0.112477      0.5 0.220521     H
C      0.12752      0.5      0.0     C
C      0.26482      0.5      0.0     C
O     0.3176716  0.48388 -0.1154283     O
O     0.3176716  0.48388 0.1154317     O
H      0.32204 0.563039 0.383203     H
H     0.322044 0.563034 0.616947     H
H     0.322052 0.437111 0.383208     H
H     0.322056 0.437116 0.616942     H
C      0.41315  0.41315  0.42017     C
C      0.41315  0.41315  0.57997     C
C      0.41315  0.58695  0.42017     C
C      0.41315  0.58695  0.57997     C
H     0.437111 0.322052 0.383208     H
H     0.437116 0.322056 0.616942     H
H     0.437166 0.678032 0.383203     H
H      0.43717 0.678028 0.616947     H
O      0.48388 -0.3176684 -0.1154283     O
O      0.48388 -0.3176684 0.1154317     O
O      0.48388 0.3176716 -0.1154283     O
O      0.48388 0.3176716 0.1154317     O
Ni         0.5     -0.5 -0.150057    Ni
Ni         0.5     -0.5 0.150063    Ni
C          0.5 -0.26478      0.0     C
C          0.5 -0.12748      0.0     C
H          0.5 -0.112484 0.220514     H
H          0.5 -0.112478 -0.220478     H
C          0.5 -0.0633382 -0.12188     C
C          0.5 -0.0633382  0.12192     C
C          0.5 0.0633418 -0.12188     C
C          0.5 0.0633418  0.12192     C
H          0.5 0.112471 -0.220485     H
H          0.5 0.112477 0.220521     H
C          0.5  0.12752      0.0     C
C          0.5  0.26482      0.0     C
Ni         0.5      0.5 -0.150057    Ni
Ni         0.5      0.5 0.150063    Ni
N          0.5      0.5  0.36594     N
N          0.5      0.5  0.63414     N
Ni         0.5      0.5 0.849943    Ni
C      0.62297      0.5  0.41947     C
C      0.62297      0.5  0.58067     C
H      0.67036  0.41864  0.61777     H
H      0.67036  0.58136  0.61777     H
H     0.670366  0.41864  0.38238     H
H     0.670366  0.58136  0.38238     H
