data_I
_chemical_name_common  '/home/zhangsd/repos/MofS-CGCNN/ML/data/WS24/clean_cifs/Ni8_OH_4_H2O_2_L10-CH3_2_6'
_cell_length_a 32.46220
_cell_length_b 32.46220
_cell_length_c 32.46220
_cell_angle_alpha 90.00000
_cell_angle_beta  90.00000
_cell_angle_gamma 90.00000
_space_group_name_H-M_alt      'P 1'


loop_
_space_group_symop_operation_xyz
  'x, y, z' 

loop_
_atom_site_label
_atom_site_fract_x
_atom_site_fract_y
_atom_site_fract_z
_atom_site_type_symbol
H     -0.1012417655320039 0.7198238993262839 0.7421349163424957     H
H     -0.10124176553200373 0.28017610067371645 0.25786508365750516     H
H     -0.10124176553200369 0.24213491634249512 0.7801761006737162     H
H     -0.10124176553200352 0.7578650836575049 0.2198238993262836     H
H     -0.08757916199634799 0.736557142371153 0.69193510833873     H
H     -0.08757916199634794 0.19193510833872982 0.7634428576288471     H
H     -0.08757916199634791 0.26344285762884734 0.30806489166127005     H
H     -0.08757916199634787 0.8080648916612698 0.23655714237115258     H
N     -0.081775 -0.081775 0.979052     N
N     -0.081775 -0.020948 0.918225     N
C     -0.07763355310040365 0.7183063840469486 0.7183063840469486     C
C     -0.07763355310040362 0.2816936159530515 0.2816936159530515     C
C     -0.0776335531004036 0.2183063840469485 0.7816936159530514     C
C     -0.0776335531004036 0.7816936159530514 0.21830638404694855     C
H     -0.07391655846069223 0.3136426656326123 0.2913316486164009     H
H     -0.07391655846069216 0.6863573343673883 0.7086683513835993     H
H     -0.07391655846069213 0.20866835138359896 0.8136426656326122     H
H     -0.07391655846069196 0.7913316486164006 0.18635733436738783     H
O     -0.064159      0.0      1.0     O
H     -0.062428 0.224514 0.224514     H
H     -0.062428 0.275486 0.724514     H
H     -0.062428 0.724514 0.275486     H
H     -0.062428 0.775486 0.775486     H
H     -0.061727 0.11634400000000009 0.11634400000000009     H
H     -0.061727 0.11634400000000009 0.883656     H
H     -0.061727 0.383656 0.383656     H
H     -0.061727 0.383656 0.616344     H
H     -0.061727 0.616344 0.383656     H
H     -0.061727 0.616344 0.616344     H
H     -0.061727 0.883656 0.11634400000000009     H
H     -0.061727 0.883656 0.883656     H
Ni    -0.04238 -0.04238  0.04242    Ni
Ni    -0.04238 -0.04238  0.95762    Ni
Ni    -0.04238 -0.04238  1.04242    Ni
Ni    -0.04238  0.04242 -0.04238    Ni
Ni    -0.04238  0.04242  0.04242    Ni
Ni    -0.04238  0.04242  0.95762    Ni
Ni    -0.04238  0.45762  0.45762    Ni
Ni    -0.04238  0.45762  0.54242    Ni
Ni    -0.04238  0.54242  0.45762    Ni
Ni    -0.04238  0.54242  0.54242    Ni
Ni    -0.04238  0.95762 -0.04238    Ni
Ni    -0.04238  0.95762  0.04242    Ni
Ni    -0.04238  0.95762  0.95762    Ni
C     -0.037083 0.234861 0.234861     C
C     -0.037083 0.234861 0.765139     C
C     -0.037083 0.265139 0.265139     C
C     -0.037083 0.265139 0.734861     C
C     -0.037083 0.734861 0.265139     C
C     -0.037083 0.734861 0.734861     C
C     -0.037083 0.765139 0.234861     C
C     -0.037083 0.765139 0.765139     C
C     -0.033894  0.10995  0.10995     C
C     -0.033894  0.10995 0.8900500000000007     C
C     -0.033894  0.39005  0.39005     C
C     -0.033894  0.39005  0.60995     C
C     -0.033894  0.60995  0.39005     C
C     -0.033894  0.60995  0.60995     C
C     -0.033894 0.8900500000000007  0.10995     C
C     -0.033894 0.8900500000000007 0.8900500000000007     C
N     -0.020948 -0.081775 0.918225     N
N     -0.020948 0.081775 0.081775     N
N     -0.020948 0.081775 0.918225     N
N     -0.020948 0.418225 0.418225     N
N     -0.020948 0.418225 0.5817750000000003     N
N     -0.020948 0.5817750000000003 0.418225     N
N     -0.020948 0.5817750000000003 0.5817750000000003     N
N     -0.020948 0.918225 0.081775     N
O          0.0 -0.064159      1.0     O
O          0.0      0.0 0.064159     O
H          0.0      0.0 0.093425     H
H          0.0      0.0 0.906575     H
O          0.0      0.0 0.935841     O
O          0.0 0.064159      0.0     O
H          0.0 0.093425      0.0     H
C          0.0 0.12736300000000017 0.12736300000000017     C
C          0.0 0.12736300000000017 0.872637     C
C          0.0 0.160037 0.160037     C
C          0.0 0.160037 0.839963     C
C          0.0 0.187048 0.187048     C
C          0.0 0.187048 0.812952     C
C          0.0 0.219722 0.219722     C
C          0.0 0.219722 0.780278     C
C          0.0 0.280278 0.280278     C
C          0.0 0.280278 0.719722     C
C          0.0 0.312952 0.312952     C
C          0.0 0.312952 0.687048     C
C          0.0 0.339963 0.339963     C
C          0.0 0.339963 0.660037     C
C          0.0 0.372637 0.372637     C
C          0.0 0.372637 0.627363     C
H          0.0 0.406575      0.5     H
O          0.0 0.435841      0.5     O
H          0.0      0.5 0.406575     H
O          0.0      0.5 0.435841     O
O          0.0      0.5 0.564159     O
H          0.0      0.5 0.593425     H
O          0.0 0.564159      0.5     O
H          0.0 0.593425      0.5     H
C          0.0 0.627363 0.372637     C
C          0.0 0.627363 0.627363     C
C          0.0 0.660037 0.339963     C
C          0.0 0.660037 0.660037     C
C          0.0 0.687048 0.312952     C
C          0.0 0.687048 0.687048     C
C          0.0 0.719722 0.280278     C
C          0.0 0.719722 0.719722     C
C          0.0 0.780278 0.219722     C
C          0.0 0.780278 0.780278     C
C          0.0 0.812952 0.187048     C
C          0.0 0.812952 0.812952     C
C          0.0 0.839963 0.160037     C
C          0.0 0.839963 0.839963     C
C          0.0 0.872637 0.12736300000000017     C
C          0.0 0.872637 0.872637     C
H          0.0 0.906575      0.0     H
N     0.020948 0.081775 0.081775     N
N     0.020948 0.081775 0.918225     N
N     0.020948 0.418225 0.418225     N
N     0.020948 0.418225 0.5817750000000003     N
N     0.020948 0.5817750000000003 0.418225     N
N     0.020948 0.5817750000000003 0.5817750000000003     N
N     0.020948 0.918225 0.081775     N
N     0.020948 0.918225 0.918225     N
C     0.033894  0.10995  0.10995     C
C     0.033894  0.10995 0.8900500000000007     C
C     0.033894  0.39005  0.39005     C
C     0.033894  0.39005  0.60995     C
C     0.033894  0.60995  0.39005     C
C     0.033894  0.60995  0.60995     C
C     0.033894 0.8900500000000007  0.10995     C
C     0.033894 0.8900500000000007 0.8900500000000007     C
C     0.037083 0.234861 0.234861     C
C     0.037083 0.234861 0.765139     C
C     0.037083 0.265139 0.265139     C
C     0.037083 0.265139 0.734861     C
C     0.037083 0.734861 0.265139     C
C     0.037083 0.734861 0.734861     C
C     0.037083 0.765139 0.234861     C
C     0.037083 0.765139 0.765139     C
Ni     0.04242 -0.04238 -0.04238    Ni
Ni     0.04242 -0.04238  0.04242    Ni
Ni     0.04242 -0.04238  0.95762    Ni
Ni     0.04242  0.04242 -0.04238    Ni
Ni     0.04242  0.04242  0.04242    Ni
Ni     0.04242  0.04242  0.95762    Ni
Ni     0.04242  0.04242  1.04242    Ni
Ni     0.04242  0.45762  0.45762    Ni
Ni     0.04242  0.45762  0.54242    Ni
Ni     0.04242  0.54242  0.45762    Ni
Ni     0.04242  0.54242  0.54242    Ni
Ni     0.04242  0.95762 -0.04238    Ni
Ni     0.04242  0.95762  0.04242    Ni
Ni     0.04242  0.95762  0.95762    Ni
Ni     0.04242  0.95762  1.04242    Ni
Ni     0.04242  1.04242  0.04242    Ni
Ni     0.04242  1.04242  0.95762    Ni
H     0.061727 0.11634400000000009 0.11634400000000009     H
H     0.061727 0.11634400000000009 0.883656     H
H     0.061727 0.383656 0.383656     H
H     0.061727 0.383656 0.616344     H
H     0.061727 0.616344 0.383656     H
H     0.061727 0.616344 0.616344     H
H     0.061727 0.883656 0.11634400000000009     H
H     0.061727 0.883656 0.883656     H
H     0.062428 0.224514 0.775486     H
H     0.062428 0.275486 0.275486     H
H     0.062428 0.724514 0.724514     H
H     0.062428 0.775486 0.224514     H
O     0.064159      0.0      0.0     O
O     0.064159      0.5      0.5     O
H     0.07391655846069216 0.20866835138359907 0.1863573343673878     H
H     0.07391655846069237 0.6863573343673883 0.2913316486164009     H
H     0.0739165584606924 0.3136426656326123 0.7086683513835991     H
H     0.07391655846069242 0.791331648616401 0.8136426656326122     H
C     0.07763355310040361 0.2183063840469485 0.2183063840469485     C
C     0.07763355310040365 0.2816936159530515 0.7183063840469486     C
C     0.07763355310040365 0.7183063840469486 0.2816936159530515     C
C     0.07763355310040367 0.7816936159530514 0.7816936159530514     C
N     0.081775 -0.020948 0.081775     N
N     0.081775 -0.020948 0.918225     N
N     0.081775 0.020948 0.081775     N
N     0.081775 0.020948 0.918225     N
N     0.081775 0.081775 -0.020948     N
N     0.081775 0.081775 0.020948     N
N     0.081775 0.418225 0.4790520000000003     N
N     0.081775 0.418225 0.520948     N
N     0.081775 0.4790520000000003 0.418225     N
N     0.081775 0.4790520000000003 0.5817750000000003     N
N     0.081775 0.520948 0.418225     N
N     0.081775 0.520948 0.5817750000000003     N
N     0.081775 0.5817750000000003 0.4790520000000003     N
N     0.081775 0.5817750000000003 0.520948     N
N     0.081775 0.918225 -0.020948     N
N     0.081775 0.918225 0.020948     N
H     0.08757916199634792 0.19193510833872998 0.23655714237115263     H
H     0.08757916199634794 0.7365571423711528 0.30806489166127     H
H     0.08757916199634794 0.8080648916612699 0.7634428576288472     H
H     0.08757916199634808 0.26344285762884734 0.69193510833873     H
H     0.093425      0.0      0.0     H
H     0.093425      0.5      0.5     H
H     0.10124176553200367 0.24213491634249487 0.2198238993262836     H
H     0.10124176553200376 0.7198238993262837 0.25786508365750493     H
H     0.10124176553200379 0.7578650836575049 0.7801761006737163     H
H     0.10124176553200395 0.2801761006737165 0.7421349163424948     H
C      0.10995 -0.033894  0.10995     C
C      0.10995 -0.033894 0.8900500000000007     C
C      0.10995 0.033894  0.10995     C
C      0.10995 0.033894 0.8900500000000007     C
C      0.10995  0.10995 -0.033894     C
C      0.10995  0.10995 0.033894     C
C      0.10995  0.39005 0.4661060000000001     C
C      0.10995  0.39005 0.533894     C
C      0.10995 0.4661060000000001  0.39005     C
C      0.10995 0.4661060000000001  0.60995     C
C      0.10995 0.533894  0.39005     C
C      0.10995 0.533894  0.60995     C
C      0.10995  0.60995 0.4661060000000001     C
C      0.10995  0.60995 0.533894     C
C      0.10995 0.8900500000000007 -0.033894     C
C      0.10995 0.8900500000000007 0.033894     C
H     0.11634400000000009 -0.061727 0.11634400000000009     H
H     0.11634400000000009 -0.061727 0.883656     H
H     0.11634400000000009 0.061727 0.11634400000000009     H
H     0.11634400000000009 0.061727 0.883656     H
H     0.11634400000000009 0.11634400000000009 -0.061727     H
H     0.11634400000000009 0.11634400000000009 0.061727     H
H     0.11634400000000009 0.383656 0.438273     H
H     0.11634400000000009 0.383656 0.561727     H
H     0.11634400000000009 0.438273 0.383656     H
H     0.11634400000000009 0.438273 0.616344     H
H     0.11634400000000009 0.561727 0.383656     H
H     0.11634400000000009 0.561727 0.616344     H
H     0.11634400000000009 0.616344 0.438273     H
H     0.11634400000000009 0.616344 0.561727     H
H     0.11634400000000009 0.883656 -0.061727     H
H     0.11634400000000009 0.883656 0.061727     H
C     0.12736300000000017      0.0 0.12736300000000017     C
C     0.12736300000000017      0.0 0.872637     C
C     0.12736300000000017 0.12736300000000017      0.0     C
C     0.12736300000000017 0.372637      0.5     C
C     0.12736300000000017      0.5 0.372637     C
C     0.12736300000000017      0.5 0.627363     C
C     0.12736300000000017 0.627363      0.5     C
C     0.12736300000000017 0.872637      0.0     C
C     0.160037      0.0 0.160037     C
C     0.160037      0.0 0.839963     C
C     0.160037 0.160037      0.0     C
C     0.160037 0.339963      0.5     C
C     0.160037      0.5 0.339963     C
C     0.160037      0.5 0.660037     C
C     0.160037 0.660037      0.5     C
C     0.160037 0.839963      0.0     C
H     0.1863573343673877 0.20866835138359907 -0.07391655846069208     H
H     0.18635733436738777 0.2913316486164008 0.573916558460692     H
H     0.18635733436738783 0.7086683513835993 0.4260834415393081     H
H     0.18635733436738788 0.5739165584606926 0.7086683513835991     H
H     0.18635733436738794 0.7913316486164008 0.07391655846069242     H
C     0.187048      0.0 0.187048     C
C     0.187048      0.0 0.812952     C
C     0.187048 0.187048      0.0     C
C     0.187048 0.312952      0.5     C
C     0.187048      0.5 0.312952     C
C     0.187048      0.5 0.687048     C
C     0.187048 0.687048      0.5     C
C     0.187048 0.812952      0.0     C
H     0.19193510833872987 0.5875791619963477 0.26344285762884734     H
H     0.19193510833872998 0.087579161996348 0.7634428576288471     H
H     0.19193510833873004 -0.0875791619963477 0.23655714237115263     H
H     0.20866835138359907 0.5739165584606921 0.31364266563261217     H
H     0.20866835138359918 0.073916558460692 0.813642665632612     H
H     0.2086683513835993 -0.0739165584606918 0.18635733436738788     H
C     0.2183063840469485 -0.0776335531004035 0.2183063840469485     C
C     0.2183063840469485 0.2816936159530515 0.5776335531004035     C
C     0.21830638404694855 0.21830638404694855 -0.07763355310040357     C
C     0.21830638404694855 0.5776335531004035 0.2816936159530515     C
C     0.21830638404694855 0.5776335531004035 0.7183063840469486     C
C     0.21830638404694855 0.7183063840469486 0.4223664468995965     C
C     0.21830638404694855 0.7816936159530514 0.07763355310040362     C
C     0.21830638404694858 0.0776335531004038 0.7816936159530514     C
C     0.219722      0.0 0.219722     C
C     0.219722      0.0 0.780278     C
C     0.219722 0.219722      0.0     C
C     0.219722 0.280278      0.5     C
C     0.219722      0.5 0.280278     C
C     0.219722      0.5 0.719722     C
C     0.219722 0.719722      0.5     C
C     0.219722 0.780278      0.0     C
H     0.21982389932628305 0.6012417655320037 0.7421349163424951     H
H     0.21982389932628327 0.2578650836575051 0.6012417655320035     H
H     0.21982389932628343 0.7578650836575053 0.10124176553200367     H
H     0.21982389932628363 0.7421349163424951 0.39875823446799674     H
H     0.21982389932628366 0.24213491634249484 -0.10124176553200365     H
H     0.224514 -0.062428 0.775486     H
H     0.224514 0.062428 0.224514     H
H     0.224514 0.224514 0.062428     H
H     0.224514 0.275486 0.437573     H
H     0.224514 0.437573 0.275486     H
H     0.224514 0.437573 0.724514     H
H     0.224514 0.724514 0.562428     H
H     0.224514 0.775486 -0.062428     H
C     0.234861 -0.037083 0.234861     C
C     0.234861 -0.037083 0.765139     C
C     0.234861 0.037083 0.234861     C
C     0.234861 0.037083 0.765139     C
C     0.234861 0.234861 -0.037083     C
C     0.234861 0.234861 0.037083     C
C     0.234861 0.265139 0.46291700000000036     C
C     0.234861 0.265139 0.537083     C
C     0.234861 0.46291700000000036 0.265139     C
C     0.234861 0.46291700000000036 0.734861     C
C     0.234861 0.537083 0.265139     C
C     0.234861 0.537083 0.734861     C
C     0.234861 0.734861 0.46291700000000036     C
C     0.234861 0.734861 0.537083     C
C     0.234861 0.765139 -0.037083     C
C     0.234861 0.765139 0.037083     C
H     0.23655714237115236 0.8080648916612698 0.08757916199634802     H
H     0.23655714237115247 0.6919351083387301 0.41242083800365237     H
H     0.23655714237115252 0.3080648916612699 0.5875791619963479     H
H     0.23655714237115258 0.1919351083387299 -0.08757916199634787     H
H     0.23655714237115258 0.5875791619963482 0.6919351083387303     H
H     0.24213491634249473 0.6012417655320036 0.28017610067371623     H
H     0.24213491634249498 -0.1012417655320034 0.21982389932628366     H
H     0.2421349163424953 0.1012417655320035 0.7801761006737162     H
H     0.25786508365750466 0.7801761006737162 0.6012417655320033     H
H     0.25786508365750505 0.7198238993262837 -0.1012417655320039     H
H     0.2578650836575051 0.2801761006737165 0.10124176553200373     H
H     0.25786508365750527 0.21982389932628327 0.39875823446799674     H
H     0.2578650836575055 0.39875823446799674 0.7801761006737166     H
H     0.26344285762884734 0.087579161996348 0.30806489166127     H
H     0.26344285762884745 -0.0875791619963481 0.6919351083387298     H
H     0.26344285762884745 0.4124208380036524 0.19193510833872993     H
C     0.265139 -0.037083 0.265139     C
C     0.265139 -0.037083 0.734861     C
C     0.265139 0.037083 0.265139     C
C     0.265139 0.037083 0.734861     C
C     0.265139 0.234861 0.46291700000000036     C
C     0.265139 0.234861 0.537083     C
C     0.265139 0.265139 -0.037083     C
C     0.265139 0.265139 0.037083     C
C     0.265139 0.46291700000000036 0.234861     C
C     0.265139 0.46291700000000036 0.765139     C
C     0.265139 0.537083 0.234861     C
C     0.265139 0.537083 0.765139     C
C     0.265139 0.734861 -0.037083     C
C     0.265139 0.734861 0.037083     C
C     0.265139 0.765139 0.46291700000000036     C
C     0.265139 0.765139 0.537083     C
H     0.275486 -0.062428 0.275486     H
H     0.275486 0.062428 0.724514     H
H     0.275486 0.224514 0.562428     H
H     0.275486 0.275486 -0.062428     H
H     0.275486 0.562428 0.224514     H
H     0.275486 0.562428 0.775486     H
H     0.275486 0.724514 0.062428     H
H     0.275486 0.775486 0.437573     H
H     0.2801761006737162 0.1012417655320037 0.2578650836575051     H
H     0.28017610067371634 -0.101241765532004 0.7421349163424946     H
H     0.2801761006737165 0.3987582344679967 0.2421349163424948     H
C     0.280278      0.0 0.280278     C
C     0.280278      0.0 0.719722     C
C     0.280278 0.219722      0.5     C
C     0.280278 0.280278      0.0     C
C     0.280278      0.5 0.219722     C
C     0.280278      0.5 0.780278     C
C     0.280278 0.719722      0.0     C
C     0.280278 0.780278      0.5     C
C     0.2816936159530515 -0.0776335531004035 0.7183063840469486     C
C     0.2816936159530515 0.0776335531004038 0.2816936159530515     C
C     0.2816936159530515 0.2816936159530515 0.07763355310040365     C
C     0.2816936159530515 0.7183063840469486 -0.07763355310040362     C
C     0.2816936159530515 0.7816936159530514 0.5776335531004035     C
C     0.28169361595305153 0.21830638404694835 0.42236644689959685     C
C     0.28169361595305153 0.4223664468995965 0.21830638404694855     C
C     0.28169361595305153 0.4223664468995965 0.7816936159530515     C
H     0.2913316486164009 0.18635733436738777 0.4260834415393081     H
H     0.2913316486164009 0.8136426656326119 0.5739165584606915     H
H     0.29133164861640093 0.31364266563261217 0.07391655846069226     H
H     0.29133164861640093 0.4260834415393082 0.8136426656326124     H
H     0.29133164861640093 0.6863573343673883 -0.07391655846069242     H
H     0.3080648916612699 0.763442857628847 0.5875791619963477     H
H     0.30806489166126994 0.2634428576288473 0.08757916199634805     H
H     0.30806489166126994 0.4124208380036524 0.7634428576288474     H
H     0.30806489166127 0.2365571423711524 0.4124208380036524     H
H     0.30806489166127005 0.7365571423711527 -0.08757916199634799     H
C     0.312952      0.0 0.312952     C
C     0.312952      0.0 0.687048     C
C     0.312952 0.187048      0.5     C
C     0.312952 0.312952      0.0     C
C     0.312952      0.5 0.187048     C
C     0.312952      0.5 0.812952     C
C     0.312952 0.687048      0.0     C
C     0.312952 0.812952      0.5     C
H     0.31364266563261217 0.0739165584606922 0.2913316486164006     H
H     0.3136426656326123 0.4260834415393081 0.20866835138359913     H
H     0.3136426656326125 -0.0739165584606926 0.708668351383599     H
C     0.339963      0.0 0.339963     C
C     0.339963      0.0 0.660037     C
C     0.339963 0.160037      0.5     C
C     0.339963 0.339963      0.0     C
C     0.339963      0.5 0.160037     C
C     0.339963      0.5 0.839963     C
C     0.339963 0.660037      0.0     C
C     0.339963 0.839963      0.5     C
C     0.372637      0.0 0.372637     C
C     0.372637      0.0 0.627363     C
C     0.372637 0.12736300000000017      0.5     C
C     0.372637 0.372637      0.0     C
C     0.372637      0.5 0.12736300000000017     C
C     0.372637      0.5 0.872637     C
C     0.372637 0.627363      0.0     C
C     0.372637 0.872637      0.5     C
H     0.383656 -0.061727 0.383656     H
H     0.383656 -0.061727 0.616344     H
H     0.383656 0.061727 0.383656     H
H     0.383656 0.061727 0.616344     H
H     0.383656 0.11634400000000009 0.438273     H
H     0.383656 0.11634400000000009 0.561727     H
H     0.383656 0.383656 -0.061727     H
H     0.383656 0.383656 0.061727     H
H     0.383656 0.438273 0.11634400000000009     H
H     0.383656 0.438273 0.883656     H
H     0.383656 0.561727 0.11634400000000009     H
H     0.383656 0.561727 0.883656     H
H     0.383656 0.616344 -0.061727     H
H     0.383656 0.616344 0.061727     H
H     0.383656 0.883656 0.438273     H
H     0.383656 0.883656 0.561727     H
C      0.39005 -0.033894  0.39005     C
C      0.39005 -0.033894  0.60995     C
C      0.39005 0.033894  0.39005     C
C      0.39005 0.033894  0.60995     C
C      0.39005  0.10995 0.4661060000000001     C
C      0.39005  0.10995 0.533894     C
C      0.39005  0.39005 -0.033894     C
C      0.39005  0.39005 0.033894     C
C      0.39005 0.4661060000000001  0.10995     C
C      0.39005 0.4661060000000001 0.8900500000000007     C
C      0.39005 0.533894  0.10995     C
C      0.39005 0.533894 0.8900500000000007     C
C      0.39005  0.60995 -0.033894     C
C      0.39005  0.60995 0.033894     C
C      0.39005 0.8900500000000007 0.4661060000000001     C
C      0.39005 0.8900500000000007 0.533894     C
H     0.39875823446799674 0.25786508365750527 0.21982389932628332     H
H     0.39875823446799674 0.7801761006737166 0.2578650836575051     H
H     0.3987582344679968 0.7578650836575053 0.7198238993262837     H
H     0.39875823446799685 0.2801761006737164 0.7578650836575054     H
H     0.406575      0.0      0.5     H
H     0.406575      0.5      0.0     H
H     0.4124208380036524 0.30806489166127005 0.2365571423711524     H
H     0.4124208380036524 0.7634428576288473 0.3080648916612698     H
H     0.41242083800365253 0.80806489166127 0.7365571423711528     H
H     0.4124208380036526 0.26344285762884734 0.8080648916612703     H
N     0.418225 -0.020948 0.418225     N
N     0.418225 -0.020948 0.5817750000000003     N
N     0.418225 0.020948 0.418225     N
N     0.418225 0.020948 0.5817750000000003     N
N     0.418225 0.081775 0.4790520000000003     N
N     0.418225 0.081775 0.520948     N
N     0.418225 0.418225 -0.020948     N
N     0.418225 0.418225 0.020948     N
N     0.418225 0.4790520000000003 0.081775     N
N     0.418225 0.4790520000000003 0.918225     N
N     0.418225 0.520948 0.081775     N
N     0.418225 0.520948 0.918225     N
N     0.418225 0.5817750000000003 -0.020948     N
N     0.418225 0.5817750000000003 0.020948     N
N     0.418225 0.918225 0.4790520000000003     N
N     0.418225 0.918225 0.520948     N
C     0.4223664468995968 0.7816936159530515 0.28169361595305153     C
C     0.42236644689959685 0.28169361595305153 0.21830638404694835     C
C     0.42236644689959685 0.2816936159530516 0.7816936159530515     C
C     0.42236644689959685 0.7816936159530515 0.7183063840469485     C
H     0.4260834415393081 0.8136426656326119 0.2913316486164008     H
H     0.4260834415393082 0.2913316486164007 0.18635733436738766     H
H     0.42608344153930855 0.31364266563261256 0.791331648616401     H
H     0.42608344153930855 0.7913316486164012 0.6863573343673882     H
O     0.435841      0.0      0.5     O
O     0.435841      0.5      0.0     O
H     0.437573 0.224514 0.275486     H
H     0.437573 0.224514 0.724514     H
H     0.437573 0.724514 0.224514     H
H     0.437573 0.724514 0.775486     H
H     0.438273 0.11634400000000009 0.383656     H
H     0.438273 0.11634400000000009 0.616344     H
H     0.438273 0.383656 0.11634400000000009     H
H     0.438273 0.383656 0.883656     H
H     0.438273 0.616344 0.11634400000000009     H
H     0.438273 0.616344 0.883656     H
H     0.438273 0.883656 0.383656     H
H     0.438273 0.883656 0.616344     H
Ni     0.45762 -0.04238  0.45762    Ni
Ni     0.45762 -0.04238  0.54242    Ni
Ni     0.45762  0.04242  0.45762    Ni
Ni     0.45762  0.04242  0.54242    Ni
Ni     0.45762  0.45762 -0.04238    Ni
Ni     0.45762  0.45762  0.04242    Ni
Ni     0.45762  0.45762  0.95762    Ni
Ni     0.45762  0.45762  1.04242    Ni
Ni     0.45762  0.54242 -0.04238    Ni
Ni     0.45762  0.54242  0.04242    Ni
Ni     0.45762  0.54242  0.95762    Ni
Ni     0.45762  0.54242  1.04242    Ni
Ni     0.45762  0.95762  0.45762    Ni
Ni     0.45762  0.95762  0.54242    Ni
Ni     0.45762  1.04242  0.45762    Ni
Ni     0.45762  1.04242  0.54242    Ni
C     0.46291700000000036 0.234861 0.265139     C
C     0.46291700000000036 0.234861 0.734861     C
C     0.46291700000000036 0.265139 0.234861     C
C     0.46291700000000036 0.265139 0.765139     C
C     0.46291700000000036 0.734861 0.234861     C
C     0.46291700000000036 0.734861 0.765139     C
C     0.46291700000000036 0.765139 0.265139     C
C     0.46291700000000036 0.765139 0.734861     C
C     0.4661060000000001  0.10995  0.39005     C
C     0.4661060000000001  0.10995  0.60995     C
C     0.4661060000000001  0.39005  0.10995     C
C     0.4661060000000001  0.39005 0.8900500000000007     C
C     0.4661060000000001  0.60995  0.10995     C
C     0.4661060000000001  0.60995 0.8900500000000007     C
C     0.4661060000000001 0.8900500000000007  0.39005     C
C     0.4661060000000001 0.8900500000000007  0.60995     C
N     0.4790520000000003 0.081775 0.418225     N
N     0.4790520000000003 0.081775 0.5817750000000003     N
N     0.4790520000000003 0.418225 0.081775     N
N     0.4790520000000003 0.418225 0.918225     N
N     0.4790520000000003 0.5817750000000003 0.081775     N
N     0.4790520000000003 0.5817750000000003 0.918225     N
N     0.4790520000000003 0.918225 0.418225     N
N     0.4790520000000003 0.918225 0.5817750000000003     N
H          0.5      0.0 0.406575     H
O          0.5      0.0 0.435841     O
O          0.5      0.0 0.564159     O
H          0.5      0.0 0.593425     H
O          0.5 0.064159      0.5     O
H          0.5 0.093425      0.5     H
C          0.5 0.12736300000000017 0.372637     C
C          0.5 0.12736300000000017 0.627363     C
C          0.5 0.160037 0.339963     C
C          0.5 0.160037 0.660037     C
C          0.5 0.187048 0.312952     C
C          0.5 0.187048 0.687048     C
C          0.5 0.219722 0.280278     C
C          0.5 0.219722 0.719722     C
C          0.5 0.280278 0.219722     C
C          0.5 0.280278 0.780278     C
C          0.5 0.312952 0.187048     C
C          0.5 0.312952 0.812952     C
C          0.5 0.339963 0.160037     C
C          0.5 0.339963 0.839963     C
C          0.5 0.372637 0.12736300000000017     C
C          0.5 0.372637 0.872637     C
H          0.5 0.406575      0.0     H
O          0.5 0.435841      0.0     O
O          0.5      0.5 0.064159     O
H          0.5      0.5 0.093425     H
H          0.5      0.5 0.906575     H
O          0.5      0.5 0.935841     O
O          0.5 0.564159      0.0     O
H          0.5 0.593425      0.0     H
C          0.5 0.627363 0.12736300000000017     C
C          0.5 0.627363 0.872637     C
C          0.5 0.660037 0.160037     C
C          0.5 0.660037 0.839963     C
C          0.5 0.687048 0.187048     C
C          0.5 0.687048 0.812952     C
C          0.5 0.719722 0.219722     C
C          0.5 0.719722 0.780278     C
C          0.5 0.780278 0.280278     C
C          0.5 0.780278 0.719722     C
C          0.5 0.812952 0.312952     C
C          0.5 0.812952 0.687048     C
C          0.5 0.839963 0.339963     C
C          0.5 0.839963 0.660037     C
C          0.5 0.872637 0.372637     C
C          0.5 0.872637 0.627363     C
H          0.5 0.906575      0.5     H
O          0.5 0.935841      0.5     O
N     0.520948 0.081775 0.418225     N
N     0.520948 0.081775 0.5817750000000003     N
N     0.520948 0.418225 0.081775     N
N     0.520948 0.418225 0.918225     N
N     0.520948 0.5817750000000003 0.081775     N
N     0.520948 0.5817750000000003 0.918225     N
N     0.520948 0.918225 0.418225     N
N     0.520948 0.918225 0.5817750000000003     N
C     0.533894  0.10995  0.39005     C
C     0.533894  0.10995  0.60995     C
C     0.533894  0.39005  0.10995     C
C     0.533894  0.39005 0.8900500000000007     C
C     0.533894  0.60995  0.10995     C
C     0.533894  0.60995 0.8900500000000007     C
C     0.533894 0.8900500000000007  0.39005     C
C     0.533894 0.8900500000000007  0.60995     C
C     0.537083 0.234861 0.265139     C
C     0.537083 0.234861 0.734861     C
C     0.537083 0.265139 0.234861     C
C     0.537083 0.265139 0.765139     C
C     0.537083 0.734861 0.234861     C
C     0.537083 0.734861 0.765139     C
C     0.537083 0.765139 0.265139     C
C     0.537083 0.765139 0.734861     C
Ni     0.54242 -0.04238  0.45762    Ni
Ni     0.54242 -0.04238  0.54242    Ni
Ni     0.54242  0.04242  0.45762    Ni
Ni     0.54242  0.04242  0.54242    Ni
Ni     0.54242  0.45762 -0.04238    Ni
Ni     0.54242  0.45762  0.04242    Ni
Ni     0.54242  0.45762  0.95762    Ni
Ni     0.54242  0.45762  1.04242    Ni
Ni     0.54242  0.54242 -0.04238    Ni
Ni     0.54242  0.54242  0.04242    Ni
Ni     0.54242  0.54242  0.95762    Ni
Ni     0.54242  0.54242  1.04242    Ni
Ni     0.54242  0.95762  0.45762    Ni
Ni     0.54242  0.95762  0.54242    Ni
Ni     0.54242  1.04242  0.45762    Ni
Ni     0.54242  1.04242  0.54242    Ni
H     0.561727 0.11634400000000009 0.383656     H
H     0.561727 0.11634400000000009 0.616344     H
H     0.561727 0.383656 0.11634400000000009     H
H     0.561727 0.383656 0.883656     H
H     0.561727 0.616344 0.11634400000000009     H
H     0.561727 0.616344 0.883656     H
H     0.561727 0.883656 0.383656     H
H     0.561727 0.883656 0.616344     H
H     0.562428 0.275486 0.224514     H
H     0.562428 0.275486 0.775486     H
H     0.562428 0.775486 0.275486     H
H     0.562428 0.775486 0.724514     H
O     0.564159      0.0      0.5     O
O     0.564159      0.5      0.0     O
H     0.5739165584606921 0.18635733436738777 0.2913316486164008     H
H     0.5739165584606924 0.6863573343673879 0.7913316486164007     H
H     0.5739165584606926 0.20866835138359896 0.6863573343673882     H
H     0.5739165584606926 0.7086683513835991 0.18635733436738783     H
C     0.5776335531004035 0.21830638404694844 0.7183063840469486     C
C     0.5776335531004035 0.21830638404694847 0.2816936159530515     C
C     0.5776335531004035 0.7183063840469486 0.2183063840469485     C
C     0.5776335531004035 0.7183063840469486 0.7816936159530514     C
N     0.5817750000000003 -0.020948 0.418225     N
N     0.5817750000000003 -0.020948 0.5817750000000003     N
N     0.5817750000000003 0.020948 0.418225     N
N     0.5817750000000003 0.020948 0.5817750000000003     N
N     0.5817750000000003 0.081775 0.4790520000000003     N
N     0.5817750000000003 0.081775 0.520948     N
N     0.5817750000000003 0.418225 -0.020948     N
N     0.5817750000000003 0.418225 0.020948     N
N     0.5817750000000003 0.4790520000000003 0.081775     N
N     0.5817750000000003 0.4790520000000003 0.918225     N
N     0.5817750000000003 0.520948 0.081775     N
N     0.5817750000000003 0.520948 0.918225     N
N     0.5817750000000003 0.5817750000000003 -0.020948     N
N     0.5817750000000003 0.5817750000000003 0.020948     N
N     0.5817750000000003 0.918225 0.4790520000000003     N
N     0.5817750000000003 0.918225 0.520948     N
H     0.587579161996348 0.19193510833872998 0.7365571423711528     H
H     0.587579161996348 0.23655714237115252 0.3080648916612699     H
H     0.587579161996348 0.7365571423711526 0.8080648916612699     H
H     0.5875791619963482 0.6919351083387303 0.23655714237115258     H
H     0.593425      0.0      0.5     H
H     0.593425      0.5      0.0     H
H     0.6012417655320035 0.2198238993262832 0.25786508365750516     H
H     0.6012417655320037 0.7198238993262837 0.757865083657505     H
H     0.6012417655320037 0.7421349163424951 0.21982389932628316     H
H     0.601241765532004 0.2421349163424948 0.7198238993262837     H
C      0.60995 -0.033894  0.39005     C
C      0.60995 -0.033894  0.60995     C
C      0.60995 0.033894  0.39005     C
C      0.60995 0.033894  0.60995     C
C      0.60995  0.10995 0.4661060000000001     C
C      0.60995  0.10995 0.533894     C
C      0.60995  0.39005 -0.033894     C
C      0.60995  0.39005 0.033894     C
C      0.60995 0.4661060000000001  0.10995     C
C      0.60995 0.4661060000000001 0.8900500000000007     C
C      0.60995 0.533894  0.10995     C
C      0.60995 0.533894 0.8900500000000007     C
C      0.60995  0.60995 -0.033894     C
C      0.60995  0.60995 0.033894     C
C      0.60995 0.8900500000000007 0.4661060000000001     C
C      0.60995 0.8900500000000007 0.533894     C
H     0.616344 -0.061727 0.383656     H
H     0.616344 -0.061727 0.616344     H
H     0.616344 0.061727 0.383656     H
H     0.616344 0.061727 0.616344     H
H     0.616344 0.11634400000000009 0.438273     H
H     0.616344 0.11634400000000009 0.561727     H
H     0.616344 0.383656 -0.061727     H
H     0.616344 0.383656 0.061727     H
H     0.616344 0.438273 0.11634400000000009     H
H     0.616344 0.438273 0.883656     H
H     0.616344 0.561727 0.11634400000000009     H
H     0.616344 0.561727 0.883656     H
H     0.616344 0.616344 -0.061727     H
H     0.616344 0.616344 0.061727     H
H     0.616344 0.883656 0.438273     H
H     0.616344 0.883656 0.561727     H
C     0.627363      0.0 0.372637     C
C     0.627363      0.0 0.627363     C
C     0.627363 0.12736300000000017      0.5     C
C     0.627363 0.372637      0.0     C
C     0.627363      0.5 0.12736300000000017     C
C     0.627363      0.5 0.872637     C
C     0.627363 0.627363      0.0     C
C     0.627363 0.872637      0.5     C
C     0.660037      0.0 0.339963     C
C     0.660037      0.0 0.660037     C
C     0.660037 0.160037      0.5     C
C     0.660037 0.339963      0.0     C
C     0.660037      0.5 0.160037     C
C     0.660037      0.5 0.839963     C
C     0.660037 0.660037      0.0     C
C     0.660037 0.839963      0.5     C
H     0.6863573343673876 0.7086683513835991 -0.0739165584606922     H
H     0.686357334367388 -0.07391655846069237 0.291331648616401     H
H     0.686357334367388 0.2913316486164009 0.07391655846069231     H
H     0.6863573343673882 0.5739165584606926 0.20866835138359885     H
H     0.6863573343673882 0.7913316486164007 0.5739165584606924     H
C     0.687048      0.0 0.312952     C
C     0.687048      0.0 0.687048     C
C     0.687048 0.187048      0.5     C
C     0.687048 0.312952      0.0     C
C     0.687048      0.5 0.187048     C
C     0.687048      0.5 0.812952     C
C     0.687048 0.687048      0.0     C
C     0.687048 0.812952      0.5     C
H     0.69193510833873 -0.0875791619963481 0.7365571423711528     H
H     0.6919351083387301 0.587579161996348 0.7634428576288472     H
H     0.6919351083387303 0.23655714237115258 0.5875791619963482     H
H     0.7086683513835991 -0.0739165584606923 0.6863573343673882     H
H     0.7086683513835991 0.5739165584606922 0.813642665632612     H
H     0.7086683513835992 0.18635733436738788 0.5739165584606926     H
C     0.7183063840469486 -0.07763355310040362 0.2816936159530515     C
C     0.7183063840469486 -0.0776335531004035 0.7183063840469486     C
C     0.7183063840469486 0.21830638404694855 0.5776335531004035     C
C     0.7183063840469486 0.2816936159530515 0.07763355310040365     C
C     0.7183063840469486 0.5776335531004035 0.21830638404694844     C
C     0.7183063840469486 0.5776335531004035 0.7816936159530514     C
C     0.7183063840469486 0.7183063840469486 -0.07763355310040362     C
C     0.7183063840469486 0.7816936159530514 0.5776335531004035     C
C     0.719722      0.0 0.280278     C
C     0.719722      0.0 0.719722     C
C     0.719722 0.219722      0.5     C
C     0.719722 0.280278      0.0     C
C     0.719722      0.5 0.219722     C
C     0.719722      0.5 0.780278     C
C     0.719722 0.719722      0.0     C
C     0.719722 0.780278      0.5     C
H     0.7198238993262834 0.7421349163424946 -0.10124176553200379     H
H     0.7198238993262837 -0.10124176553200381 0.25786508365750493     H
H     0.7198238993262837 0.25786508365750493 0.10124176553200376     H
H     0.7198238993262837 0.601241765532004 0.2421349163424948     H
H     0.7198238993262837 0.757865083657505 0.6012417655320038     H
H        0.723    0.723 0.0661353     H
H     0.724514 0.062428 0.275486     H
H     0.724514 0.062428 0.724514     H
H     0.724514 0.224514 0.437573     H
H     0.724514 0.275486 -0.062428     H
H     0.724514 0.437573 0.224514     H
H     0.724514 0.437573 0.775486     H
H     0.724514 0.775486 0.437573     H
C     0.734861 -0.037083 0.265139     C
C     0.734861 -0.037083 0.734861     C
C     0.734861 0.037083 0.265139     C
C     0.734861 0.037083 0.734861     C
C     0.734861 0.234861 0.46291700000000036     C
C     0.734861 0.234861 0.537083     C
C     0.734861 0.265139 -0.037083     C
C     0.734861 0.265139 0.037083     C
C     0.734861 0.46291700000000036 0.234861     C
C     0.734861 0.46291700000000036 0.765139     C
C     0.734861 0.537083 0.234861     C
C     0.734861 0.537083 0.765139     C
C     0.734861 0.734861 -0.037083     C
C     0.734861 0.734861 0.037083     C
C     0.734861 0.765139 0.46291700000000036     C
C     0.734861 0.765139 0.537083     C
H     0.7365571423711526 0.6919351083387298 -0.08757916199634784     H
H     0.7365571423711526 0.8080648916612699 0.587579161996348     H
H     0.7365571423711528 -0.08757916199634794 0.30806489166127005     H
H     0.7365571423711528 0.30806489166127 0.08757916199634794     H
H     0.7365571423711528 0.587579161996348 0.19193510833872998     H
H     0.7421349163424948 -0.1012417655320041 0.7198238993262837     H
H     0.7421349163424951 0.21982389932628316 0.6012417655320037     H
H     0.7421349163424951 0.6012417655320038 0.7801761006737163     H
H     0.7578650836575049 0.21982389932628352 -0.10124176553200348     H
H     0.7578650836575049 0.7801761006737163 0.10124176553200379     H
H     0.7578650836575053 0.10124176553200367 0.21982389932628352     H
H     0.7578650836575053 0.7198238993262837 0.39875823446799674     H
H     0.7578650836575054 0.3987582344679968 0.2801761006737164     H
H     0.7634428576288469 0.087579161996348 0.8080648916612697     H
H     0.7634428576288474 0.30806489166127005 0.4124208380036524     H
H     0.7634428576288474 0.4124208380036524 0.69193510833873     H
C     0.765139 -0.037083 0.234861     C
C     0.765139 -0.037083 0.765139     C
C     0.765139 0.037083 0.234861     C
C     0.765139 0.037083 0.765139     C
C     0.765139 0.234861 -0.037083     C
C     0.765139 0.234861 0.037083     C
C     0.765139 0.265139 0.46291700000000036     C
C     0.765139 0.265139 0.537083     C
C     0.765139 0.46291700000000036 0.265139     C
C     0.765139 0.46291700000000036 0.734861     C
C     0.765139 0.537083 0.265139     C
C     0.765139 0.537083 0.734861     C
C     0.765139 0.734861 0.46291700000000036     C
C     0.765139 0.734861 0.537083     C
C     0.765139 0.765139 -0.037083     C
C     0.765139 0.765139 0.037083     C
H     0.775486 -0.062428 0.224514     H
H     0.775486 -0.062428 0.775486     H
H     0.775486 0.224514 0.062428     H
H     0.775486 0.275486 0.562428     H
H     0.775486 0.562428 0.275486     H
H     0.775486 0.562428 0.724514     H
H     0.775486 0.724514 0.562428     H
H        0.777    0.777 -0.0661353     H
H     0.7801761006737163 0.1012417655320033 0.7578650836575044     H
H     0.7801761006737166 0.2578650836575054 0.39875823446799674     H
H     0.7801761006737168 0.3987582344679967 0.7421349163424948     H
C     0.780278      0.0 0.219722     C
C     0.780278      0.0 0.780278     C
C     0.780278 0.219722      0.0     C
C     0.780278 0.280278      0.5     C
C     0.780278      0.5 0.280278     C
C     0.780278      0.5 0.719722     C
C     0.780278 0.719722      0.5     C
C     0.780278 0.780278      0.0     C
C     0.7816936159530514 0.07763355310040362 0.21830638404694847     C
C     0.7816936159530514 0.0776335531004038 0.7816936159530514     C
C     0.7816936159530514 0.21830638404694847 -0.0776335531004036     C
C     0.7816936159530514 0.7816936159530514 0.07763355310040367     C
C     0.7816936159530515 0.28169361595305153 0.4223664468995965     C
C     0.7816936159530515 0.4223664468995968 0.7183063840469485     C
C     0.7816936159530515 0.42236644689959685 0.2816936159530516     C
C     0.7816936159530515 0.7183063840469485 0.4223664468995968     C
H     0.7913316486164007 0.18635733436738783 -0.07391655846069196     H
H     0.7913316486164008 0.07391655846069242 0.18635733436738794     H
H     0.7913316486164009 0.8136426656326122 0.07391655846069242     H
H     0.791331648616401 0.42608344153930855 0.31364266563261256     H
H     0.7913316486164013 0.6863573343673883 0.4260834415393081     H
H     0.8080648916612698 0.08757916199634802 0.23655714237115236     H
H     0.8080648916612698 0.23655714237115258 -0.08757916199634787     H
H     0.8080648916612699 0.7365571423711527 0.4124208380036524     H
H     0.8080648916612699 0.7634428576288472 0.08757916199634794     H
H     0.8080648916612703 0.4124208380036526 0.26344285762884734     H
C     0.812952      0.0 0.187048     C
C     0.812952      0.0 0.812952     C
C     0.812952 0.187048      0.0     C
C     0.812952 0.312952      0.5     C
C     0.812952      0.5 0.312952     C
C     0.812952      0.5 0.687048     C
C     0.812952 0.687048      0.5     C
C     0.812952 0.812952      0.0     C
H     0.813642665632612 0.0739165584606918 0.7913316486164008     H
H     0.8136426656326126 0.29133164861640093 0.42608344153930827     H
H     0.8136426656326126 0.4260834415393081 0.7086683513835992     H
C     0.839963      0.0 0.160037     C
C     0.839963      0.0 0.839963     C
C     0.839963 0.160037      0.0     C
C     0.839963 0.339963      0.5     C
C     0.839963      0.5 0.339963     C
C     0.839963      0.5 0.660037     C
C     0.839963 0.660037      0.5     C
C     0.839963 0.839963      0.0     C
C     0.872637      0.0 0.12736300000000017     C
C     0.872637      0.0 0.872637     C
C     0.872637 0.12736300000000017      0.0     C
C     0.872637 0.372637      0.5     C
C     0.872637      0.5 0.372637     C
C     0.872637      0.5 0.627363     C
C     0.872637 0.627363      0.5     C
C     0.872637 0.872637      0.0     C
H     0.883656 -0.061727 0.11634400000000009     H
H     0.883656 -0.061727 0.883656     H
H     0.883656 0.061727 0.11634400000000009     H
H     0.883656 0.061727 0.883656     H
H     0.883656 0.11634400000000009 -0.061727     H
H     0.883656 0.11634400000000009 0.061727     H
H     0.883656 0.383656 0.438273     H
H     0.883656 0.383656 0.561727     H
H     0.883656 0.438273 0.383656     H
H     0.883656 0.438273 0.616344     H
H     0.883656 0.561727 0.383656     H
H     0.883656 0.561727 0.616344     H
H     0.883656 0.616344 0.438273     H
H     0.883656 0.616344 0.561727     H
H     0.883656 0.883656 -0.061727     H
H     0.883656 0.883656 0.061727     H
C     0.8900500000000007 -0.033894  0.10995     C
C     0.8900500000000007 -0.033894 0.8900500000000007     C
C     0.8900500000000007 0.033894  0.10995     C
C     0.8900500000000007 0.033894 0.8900500000000007     C
C     0.8900500000000007  0.10995 -0.033894     C
C     0.8900500000000007  0.10995 0.033894     C
C     0.8900500000000007  0.39005 0.4661060000000001     C
C     0.8900500000000007  0.39005 0.533894     C
C     0.8900500000000007 0.4661060000000001  0.39005     C
C     0.8900500000000007 0.4661060000000001  0.60995     C
C     0.8900500000000007 0.533894  0.39005     C
C     0.8900500000000007 0.533894  0.60995     C
C     0.8900500000000007  0.60995 0.4661060000000001     C
C     0.8900500000000007  0.60995 0.533894     C
C     0.8900500000000007 0.8900500000000007 -0.033894     C
C     0.8900500000000007 0.8900500000000007 0.033894     C
H     0.906575      0.0      0.0     H
H     0.906575      0.5      0.5     H
N     0.918225 -0.020948 0.081775     N
N     0.918225 0.020948 0.081775     N
N     0.918225 0.020948 0.918225     N
N     0.918225 0.081775 -0.020948     N
N     0.918225 0.081775 0.020948     N
N     0.918225 0.418225 0.4790520000000003     N
N     0.918225 0.418225 0.520948     N
N     0.918225 0.4790520000000003 0.418225     N
N     0.918225 0.4790520000000003 0.5817750000000003     N
N     0.918225 0.520948 0.418225     N
N     0.918225 0.520948 0.5817750000000003     N
N     0.918225 0.5817750000000003 0.4790520000000003     N
N     0.918225 0.5817750000000003 0.520948     N
N     0.918225 0.918225 0.020948     N
O     0.935841      0.5      0.5     O
Ni     0.95762 -0.04238 -0.04238    Ni
Ni     0.95762 -0.04238  0.04242    Ni
Ni     0.95762 -0.04238  0.95762    Ni
Ni     0.95762  0.04242 -0.04238    Ni
Ni     0.95762  0.04242  0.04242    Ni
Ni     0.95762  0.04242  0.95762    Ni
Ni     0.95762  0.04242  1.04242    Ni
Ni     0.95762  0.45762  0.45762    Ni
Ni     0.95762  0.45762  0.54242    Ni
Ni     0.95762  0.54242  0.45762    Ni
Ni     0.95762  0.54242  0.54242    Ni
Ni     0.95762  0.95762 -0.04238    Ni
Ni     0.95762  0.95762  0.04242    Ni
Ni     0.95762  1.04242  0.04242    Ni
Ni     1.04242  0.04242  0.04242    Ni
Ni     1.04242  0.04242  0.95762    Ni
Ni     1.04242  0.45762  0.45762    Ni
Ni     1.04242  0.45762  0.54242    Ni
Ni     1.04242  0.54242  0.45762    Ni
Ni     1.04242  0.54242  0.54242    Ni
Ni     1.04242  0.95762  0.04242    Ni
