data_I
_chemical_name_common  '/home/zhangsd/repos/MofS-CGCNN/ML/data/WS24/clean_cifs/OHAKEO'
_cell_length_a  8.25400
_cell_length_b 18.00600
_cell_length_c 18.89600
_cell_angle_alpha 90.00000
_cell_angle_beta  90.00000
_cell_angle_gamma 90.00000
_space_group_name_H-M_alt      'P 1'


loop_
_space_group_symop_operation_xyz
  'x, y, z' 

loop_
_atom_site_label
_atom_site_fract_x
_atom_site_fract_y
_atom_site_fract_z
_atom_site_type_symbol
H       0.0015   0.0342    0.828     H
H       0.0015   0.5342    0.672     H
C       0.0132   0.0549   0.7832     C
C       0.0132   0.5549   0.7168     C
C       0.0234   0.4731   0.5203     C
C       0.0234   0.9731   0.9797     C
C       0.0339   0.3217   0.0428     C
C       0.0339   0.8217   0.4572     C
H       0.0424   0.0233   0.9874     H
H       0.0424   0.5233   0.5126     H
H       0.0524   0.2713   0.0498     H
H       0.0524   0.7713   0.4502     H
C       0.0532   0.1123   0.6475     C
C       0.0532   0.6123   0.8525     C
H       0.0664   0.1315   0.6022     H
H       0.0664   0.6315   0.8978     H
C       0.0975   0.0837   0.1681     C
C       0.0975   0.5837   0.3319     C
C       0.1158   0.0555   0.2364     C
C       0.1158   0.5555   0.2636     C
C        0.122   0.3511   0.5478     C
C        0.122   0.8511   0.9522     C
C        0.134   0.4455   0.0161     C
C        0.134   0.9455   0.4839     C
C       0.1529   0.4259   0.5361     C
C       0.1529   0.9259   0.9639     C
C       0.1612   0.3699   0.0271     C
C       0.1612   0.8699   0.4729     C
C       0.1615   0.0858   0.7625     C
C       0.1615   0.5858   0.7375     C
C       0.1833   0.1122   0.6944     C
C       0.1833   0.6122   0.8056     C
H        0.184   0.1085   0.9054     H
H        0.184   0.6085   0.5946     H
H       0.2137   0.2107   0.5036     H
H       0.2137   0.7107   0.9964     H
O       0.2148   0.1177   0.0574     O
O       0.2148   0.6177   0.4426     O
H       0.2158    0.037   0.2506     H
H       0.2158    0.537   0.2494     H
C        0.237   0.0882   0.1172     C
C        0.237   0.5882   0.3828     C
O       0.2417   0.0661   0.5016     O
O       0.2417   0.5661   0.9984     O
N       0.2549   0.3032   0.5626     N
N       0.2549   0.8032   0.9374     N
H        0.258   0.4444   0.5387     H
H        0.258   0.9444   0.9613     H
H       0.2661   0.3513    0.024     H
H       0.2661   0.8513    0.476     H
C       0.2725   0.4973   0.0002     C
C       0.2725   0.9973   0.4998     C
C       0.2809   0.1006   0.8815     C
C       0.2809   0.6006   0.6185     C
C       0.2826   0.2345   0.5352     C
C       0.2826   0.7345   0.9648     C
H       0.2841   0.1298   0.6801     H
H       0.2841   0.6298   0.8199     H
N       0.2932   0.0872   0.8111     N
N       0.2932   0.5872   0.6889     N
H       0.3511   0.0849   0.3641     H
H       0.3511   0.5849   0.1359     H
O       0.3732   0.0612   0.1361     O
O       0.3732   0.5612   0.3639     O
C       0.3846   0.3181    0.608     C
C       0.3846   0.8181    0.892     C
H       0.3995   0.3608   0.6349     H
H       0.3995   0.8608   0.8651     H
O       0.4132    0.472    0.989     O
O       0.4132    0.972    0.511     O
H        0.418   0.2525   0.1301     H
H        0.418   0.7525   0.3699     H
N       0.4184    0.206   0.5588     N
N       0.4184    0.706   0.9412     N
N       0.4249    0.101   0.9111     N
N       0.4249    0.601   0.5889     N
C       0.4561   0.0802   0.7949     C
C       0.4561   0.5802   0.7051     C
C       0.4627   0.0879   0.3581     C
C       0.4627   0.5879   0.1419     C
C       0.4854   0.2579   0.6053     C
C       0.4854   0.7579   0.8947     C
Cd     0.48731  0.09337  0.02727    Cd
Cd     0.48731  0.59337  0.47273    Cd
H       0.4987   0.0719   0.2505     H
H       0.4987   0.5719   0.2495     H
H       0.5013   0.0719   0.7505     H
H       0.5013   0.5719   0.7495     H
Cd     0.51269  0.09337  0.52727    Cd
Cd     0.51269  0.59337  0.97273    Cd
C       0.5146   0.2579   0.1053     C
C       0.5146   0.7579   0.3947     C
C       0.5373   0.0879   0.8581     C
C       0.5373   0.5879   0.6419     C
C       0.5439   0.0802   0.2949     C
C       0.5439   0.5802   0.2051     C
N       0.5751    0.101   0.4111     N
N       0.5751    0.601   0.0889     N
N       0.5816    0.206   0.0588     N
N       0.5816    0.706   0.4412     N
H        0.582   0.2525   0.6301     H
H        0.582   0.7525   0.8699     H
O       0.5868    0.472    0.489     O
O       0.5868    0.972    0.011     O
H       0.6005   0.3608   0.1349     H
H       0.6005   0.8608   0.3651     H
C       0.6154   0.3181    0.108     C
C       0.6154   0.8181    0.392     C
O       0.6268   0.0612   0.6361     O
O       0.6268   0.5612   0.8639     O
H       0.6489   0.0849   0.8641     H
H       0.6489   0.5849   0.6359     H
N       0.7068   0.0872   0.3111     N
N       0.7068   0.5872   0.1889     N
H       0.7159   0.1298   0.1801     H
H       0.7159   0.6298   0.3199     H
C       0.7174   0.2345   0.0352     C
C       0.7174   0.7345   0.4648     C
C       0.7191   0.1006   0.3815     C
C       0.7191   0.6006   0.1185     C
C       0.7275   0.4973   0.5002     C
C       0.7275   0.9973   0.9998     C
H       0.7339   0.3513    0.524     H
H       0.7339   0.8513    0.976     H
H        0.742   0.4444   0.0387     H
H        0.742   0.9444   0.4613     H
N       0.7451   0.3032   0.0626     N
N       0.7451   0.8032   0.4374     N
O       0.7583   0.0661   0.0016     O
O       0.7583   0.5661   0.4984     O
C        0.763   0.0882   0.6172     C
C        0.763   0.5882   0.8828     C
H       0.7842    0.037   0.7506     H
H       0.7842    0.537   0.7494     H
O       0.7852   0.1177   0.5574     O
O       0.7852   0.6177   0.9426     O
H       0.7863   0.2107   0.0036     H
H       0.7863   0.7107   0.4964     H
H        0.816   0.1085   0.4054     H
H        0.816   0.6085   0.0946     H
C       0.8167   0.1122   0.1944     C
C       0.8167   0.6122   0.3056     C
C       0.8385   0.0858   0.2625     C
C       0.8385   0.5858   0.2375     C
C       0.8388   0.3699   0.5271     C
C       0.8388   0.8699   0.9729     C
C       0.8471   0.4259   0.0361     C
C       0.8471   0.9259   0.4639     C
C        0.866   0.4455   0.5161     C
C        0.866   0.9455   0.9839     C
C        0.878   0.3511   0.0478     C
C        0.878   0.8511   0.4522     C
C       0.8842   0.0555   0.7364     C
C       0.8842   0.5555   0.7636     C
C       0.9025   0.0837   0.6681     C
C       0.9025   0.5837   0.8319     C
H       0.9336   0.1315   0.1022     H
H       0.9336   0.6315   0.3978     H
C       0.9468   0.1123   0.1475     C
C       0.9468   0.6123   0.3525     C
H       0.9476   0.2713   0.5498     H
H       0.9476   0.7713   0.9502     H
H       0.9576   0.0233   0.4874     H
H       0.9576   0.5233   0.0126     H
C       0.9661   0.3217   0.5428     C
C       0.9661   0.8217   0.9572     C
C       0.9766   0.4731   0.0203     C
C       0.9766   0.9731   0.4797     C
C       0.9868   0.0549   0.2832     C
C       0.9868   0.5549   0.2168     C
H       0.9985   0.0342    0.328     H
H       0.9985   0.5342    0.172     H
