data_I
_chemical_name_common  '/home/zhangsd/repos/MofS-CGCNN/ML/data/WS24/clean_cifs/OHUMEL'
_cell_length_a 48.92800
_cell_length_b 48.92800
_cell_length_c 48.92800
_cell_angle_alpha 90.00000
_cell_angle_beta  90.00000
_cell_angle_gamma 90.00000
_space_group_name_H-M_alt      'P 1'


loop_
_space_group_symop_operation_xyz
  'x, y, z' 

loop_
_atom_site_label
_atom_site_fract_x
_atom_site_fract_y
_atom_site_fract_z
_atom_site_type_symbol
C       0.0003   0.0401   0.5265     C
C       0.0003   0.4599   0.0265     C
C       0.0003   0.5401   0.4735     C
C       0.0003   0.9599   0.9735     C
H       0.0005   0.1338   0.9844     H
H       0.0005   0.3662   0.4844     H
H       0.0005   0.6338   0.0156     H
H       0.0005   0.8662   0.5156     H
Mo     0.00266  0.21726  0.80603    Mo
Mo     0.00266  0.28274  0.30603    Mo
Mo     0.00266  0.71726  0.19397    Mo
Mo     0.00266  0.78274  0.69397    Mo
O      0.00275  0.22512  0.94123     O
O      0.00275  0.27488  0.44123     O
O      0.00275  0.72512  0.05877     O
O      0.00275  0.77488  0.55877     O
C       0.0031   0.0178   0.0433     C
C       0.0031   0.4822   0.5433     C
C       0.0031   0.5178   0.9567     C
C       0.0031   0.9822   0.4567     C
C       0.0035   0.0093   0.5936     C
C       0.0035   0.4907   0.0936     C
C       0.0035   0.5093   0.4064     C
C       0.0035   0.9907   0.9064     C
Zn     0.00518  0.19106  0.92156    Zn
Zn     0.00518  0.30894  0.42156    Zn
Zn     0.00518  0.69106  0.07844    Zn
Zn     0.00518  0.80894  0.57844    Zn
O      0.00613  0.15906  0.94521     O
O      0.00613  0.34094  0.44521     O
O      0.00613  0.65906  0.05479     O
O      0.00613  0.84094  0.55479     O
C       0.0063    0.117   0.9777     C
C       0.0063    0.383   0.4777     C
C       0.0063    0.617   0.0223     C
C       0.0063    0.883   0.5223     C
O      0.00694  0.16562  0.85928     O
O      0.00694  0.33438  0.35928     O
O      0.00694  0.66562  0.14072     O
O      0.00694  0.83438  0.64072     O
H       0.0073   0.0961   0.0153     H
H       0.0073   0.4039   0.5153     H
H       0.0073   0.5961   0.9847     H
H       0.0073   0.9039   0.4847     H
C       0.0093   0.0936   0.9965     C
C       0.0093   0.1373   0.9332     C
C       0.0093   0.3627   0.4332     C
C       0.0093   0.4064   0.4965     C
C       0.0093   0.5936   0.0035     C
C       0.0093   0.6373   0.0668     C
C       0.0093   0.8627   0.5668     C
C       0.0093   0.9064   0.5035     C
O      0.01026  0.13492  0.90761     O
O      0.01026  0.36508  0.40761     O
O      0.01026  0.63492  0.09239     O
O      0.01026  0.86508  0.59239     O
C       0.0116   0.1142   0.9522     C
C       0.0116   0.3858   0.4522     C
C       0.0116   0.6142   0.0478     C
C       0.0116   0.8858   0.5478     C
C       0.0137   0.0149   0.5682     C
C       0.0137   0.4851   0.0682     C
C       0.0137   0.5149   0.4318     C
C       0.0137   0.9851   0.9318     C
H        0.014   0.0528     0.53     H
H        0.014   0.4472     0.03     H
H        0.014   0.5528     0.47     H
H        0.014   0.9472     0.97     H
C       0.0149   0.0682   0.9863     C
C       0.0149   0.4318   0.4863     C
C       0.0149   0.5682   0.0137     C
C       0.0149   0.9318   0.5137     C
H       0.0153   0.0073   0.0961     H
H       0.0153   0.4927   0.5961     H
H       0.0153   0.5073   0.9039     H
H       0.0153   0.9927   0.4039     H
H       0.0156   0.0005   0.6338     H
H       0.0156   0.4995   0.1338     H
H       0.0156   0.5005   0.3662     H
H       0.0156   0.9995   0.8662     H
C       0.0174   0.0897   0.9417     C
C       0.0174   0.4103   0.4417     C
C       0.0174   0.5897   0.0583     C
C       0.0174   0.9103   0.5583     C
C       0.0178   0.0433   0.0031     C
C       0.0178   0.4567   0.5031     C
C       0.0178   0.5433   0.9969     C
C       0.0178   0.9567   0.4969     C
C       0.0191    0.065   0.9581     C
C       0.0191    0.435   0.4581     C
C       0.0191    0.565   0.0419     C
C       0.0191    0.935   0.5419     C
H       0.0204   0.0884    0.923     H
H       0.0204   0.4116    0.423     H
H       0.0204   0.5884    0.077     H
H       0.0204   0.9116    0.577     H
C       0.0223   0.0063    0.617     C
C       0.0223   0.4937    0.117     C
C       0.0223   0.5063    0.383     C
C       0.0223   0.9937    0.883     C
H       0.0229   0.0481   0.9504     H
H       0.0229   0.4519   0.4504     H
H       0.0229   0.5481   0.0496     H
H       0.0229   0.9519   0.5496     H
O      0.02386    0.192   0.3208     O
O      0.02386    0.308   0.8208     O
O      0.02386    0.692   0.6792     O
O      0.02386    0.808   0.1792     O
O      0.02488  0.24725  0.30877     O
O      0.02488  0.25275  0.80877     O
O      0.02488  0.74725  0.69123     O
O      0.02488  0.75275  0.19123     O
O      0.02567  0.18835  0.39601     O
O      0.02567  0.31165  0.89601     O
O      0.02567  0.68835  0.60399     O
O      0.02567  0.81165  0.10399     O
C       0.0265   0.0003   0.4599     C
C       0.0265   0.4997   0.9599     C
C       0.0265   0.5003   0.5401     C
C       0.0265   0.9997   0.0401     C
H         0.03    0.014   0.4472     H
H         0.03    0.486   0.9472     H
H         0.03    0.514   0.5528     H
H         0.03    0.986   0.0528     H
Mo     0.03085  0.18348  0.35731    Mo
Mo     0.03085  0.31652  0.85731    Mo
Mo     0.03085  0.68348  0.64269    Mo
Mo     0.03085  0.81652  0.14269    Mo
O      0.03218  0.19804  0.81837     O
O      0.03218  0.30196  0.31837     O
O      0.03218  0.69804  0.18163     O
O      0.03218  0.80196  0.68163     O
Mo     0.03274  0.24734  0.44397    Mo
Mo     0.03274  0.25266  0.94397    Mo
Mo     0.03274  0.74734  0.55603    Mo
Mo     0.03274  0.75266  0.05603    Mo
O      0.03637  0.19359  0.89558     O
O      0.03637  0.30641  0.39558     O
O      0.03637  0.69359  0.10442     O
O      0.03637  0.80641  0.60442     O
C       0.0401   0.0265   0.9997     C
C       0.0401   0.4735   0.4997     C
C       0.0401   0.5265   0.0003     C
C       0.0401   0.9735   0.5003     C
Mo     0.04167  0.18982  0.85679    Mo
Mo     0.04167  0.31018  0.35679    Mo
Mo     0.04167  0.68982  0.14321    Mo
Mo     0.04167  0.81018  0.64321    Mo
C       0.0419   0.0191    0.565     C
C       0.0419   0.4809    0.065     C
C       0.0419   0.5191    0.435     C
C       0.0419   0.9809    0.935     C
C       0.0433   0.0031   0.0178     C
C       0.0433   0.4969   0.5178     C
C       0.0433   0.5031   0.9822     C
C       0.0433   0.9969   0.4822     C
C       0.0478   0.0116   0.6142     C
C       0.0478   0.4884   0.1142     C
C       0.0478   0.5116   0.3858     C
C       0.0478   0.9884   0.8858     C
H       0.0481   0.0496   0.4771     H
H       0.0481   0.4504   0.9771     H
H       0.0481   0.5496   0.5229     H
H       0.0481   0.9504   0.0229     H
H       0.0496   0.0229   0.5481     H
H       0.0496   0.4771   0.0481     H
H       0.0496   0.5229   0.4519     H
H       0.0496   0.9771   0.9519     H
O      0.05196  0.21782  0.43163     O
O      0.05196  0.28218  0.93163     O
O      0.05196  0.71782  0.56837     O
O      0.05196  0.78218  0.06837     O
H       0.0528     0.03    0.986     H
H       0.0528     0.47    0.486     H
H       0.0528     0.53    0.014     H
H       0.0528     0.97    0.514     H
O      0.05479  0.00613  0.65906     O
O      0.05479  0.49387  0.15906     O
O      0.05479  0.50613  0.34094     O
O      0.05479  0.99387  0.84094     O
Mo     0.05603  0.03274  0.75266    Mo
Mo     0.05603  0.46726  0.25266    Mo
Mo     0.05603  0.53274  0.24734    Mo
Mo     0.05603  0.96726  0.74734    Mo
O      0.05641  0.21363  0.35442     O
O      0.05641  0.28637  0.85442     O
O      0.05641  0.71363  0.64558     O
O      0.05641  0.78637  0.14558     O
O        0.058  0.22614   0.9292     O
O        0.058  0.27386   0.4292     O
O        0.058  0.72614   0.0708     O
O        0.058  0.77386   0.5708     O
C       0.0583   0.0174   0.5897     C
C       0.0583   0.4826   0.0897     C
C       0.0583   0.5174   0.4103     C
C       0.0583   0.9826   0.9103     C
O      0.05877  0.00275  0.72512     O
O      0.05877  0.49725  0.22512     O
O      0.05877  0.50275  0.27488     O
O      0.05877  0.99725  0.77488     O
Zn     0.05894  0.24482  0.32844    Zn
Zn     0.05894  0.25518  0.82844    Zn
Zn     0.05894  0.74482  0.67156    Zn
Zn     0.05894  0.75518  0.17156    Zn
Mo     0.06018  0.20833  0.39321    Mo
Mo     0.06018  0.29167  0.89321    Mo
Mo     0.06018  0.70833  0.60679    Mo
Mo     0.06018  0.79167  0.10679    Mo
O      0.06165  0.22433  0.85399     O
O      0.06165  0.27567  0.35399     O
O      0.06165  0.72433  0.14601     O
O      0.06165  0.77567  0.64601     O
C        0.065   0.0419   0.4809     C
C        0.065   0.4581   0.9809     C
C        0.065   0.5419   0.5191     C
C        0.065   0.9581   0.0191     C
Mo     0.06652  0.21915  0.89269    Mo
Mo     0.06652  0.28085  0.39269    Mo
Mo     0.06652  0.71915  0.10731    Mo
Mo     0.06652  0.78085  0.60731    Mo
C       0.0668   0.0093   0.6373     C
C       0.0668   0.4907   0.1373     C
C       0.0668   0.5093   0.3627     C
C       0.0668   0.9907   0.8627     C
C       0.0682   0.0137   0.4851     C
C       0.0682   0.4863   0.9851     C
C       0.0682   0.5137   0.5149     C
C       0.0682   0.9863   0.0149     C
O      0.06837  0.05196  0.78218     O
O      0.06837  0.44804  0.28218     O
O      0.06837  0.55196  0.21782     O
O      0.06837  0.94804  0.71782     O
O       0.0708    0.058  0.72614     O
O       0.0708    0.442  0.22614     O
O       0.0708    0.558  0.27386     O
O       0.0708    0.942  0.77386     O
H        0.077   0.0204   0.5884     H
H        0.077   0.4796   0.0884     H
H        0.077   0.5204   0.4116     H
H        0.077   0.9796   0.9116     H
Zn     0.07844  0.00518  0.69106    Zn
Zn     0.07844  0.49482  0.19106    Zn
Zn     0.07844  0.50518  0.30894    Zn
Zn     0.07844  0.99482  0.80894    Zn
O      0.08438  0.24306  0.39072     O
O      0.08438  0.25694  0.89072     O
O      0.08438  0.74306  0.60928     O
O      0.08438  0.75694  0.10928     O
H       0.0884    0.077   0.4796     H
H       0.0884    0.423   0.9796     H
H       0.0884    0.577   0.5204     H
H       0.0884    0.923   0.0204     H
C       0.0897   0.0583   0.4826     C
C       0.0897   0.4417   0.9826     C
C       0.0897   0.5583   0.5174     C
C       0.0897   0.9417   0.0174     C
O      0.09094  0.24387  0.30479     O
O      0.09094  0.25613  0.80479     O
O      0.09094  0.74387  0.69521     O
O      0.09094  0.75613  0.19521     O
O      0.09239  0.01026  0.63492     O
O      0.09239  0.48974  0.13492     O
O      0.09239  0.51026  0.36508     O
O      0.09239  0.98974  0.86508     O
C       0.0936   0.0035   0.4907     C
C       0.0936   0.4965   0.9907     C
C       0.0936   0.5035   0.5093     C
C       0.0936   0.9965   0.0093     C
H       0.0961   0.0153   0.0073     H
H       0.0961   0.4847   0.5073     H
H       0.0961   0.5153   0.9927     H
H       0.0961   0.9847   0.4927     H
O      0.10399  0.02567  0.81165     O
O      0.10399  0.47433  0.31165     O
O      0.10399  0.52567  0.18835     O
O      0.10399  0.97433  0.68835     O
O      0.10442  0.03637  0.69359     O
O      0.10442  0.46363  0.19359     O
O      0.10442  0.53637  0.30641     O
O      0.10442  0.96363  0.80641     O
Mo     0.10679  0.06018  0.79167    Mo
Mo     0.10679  0.43982  0.29167    Mo
Mo     0.10679  0.56018  0.20833    Mo
Mo     0.10679  0.93982  0.70833    Mo
Mo     0.10731  0.06652  0.71915    Mo
Mo     0.10731  0.43348  0.21915    Mo
Mo     0.10731  0.56652  0.28085    Mo
Mo     0.10731  0.93348  0.78085    Mo
O      0.10928  0.08438  0.75694     O
O      0.10928  0.41562  0.25694     O
O      0.10928  0.58438  0.24306     O
O      0.10928  0.91562  0.74306     O
C       0.1127   0.2407   0.3168     C
C       0.1127   0.2593   0.8168     C
C       0.1127   0.7407   0.6832     C
C       0.1127   0.7593   0.1832     C
C       0.1142   0.0478   0.4884     C
C       0.1142   0.4522   0.9884     C
C       0.1142   0.5478   0.5116     C
C       0.1142   0.9522   0.0116     C
O      0.11508  0.23974  0.34239     O
O      0.11508  0.26026  0.84239     O
O      0.11508  0.73974  0.65761     O
O      0.11508  0.76026  0.15761     O
H       0.1162   0.2495   0.2656     H
H       0.1162   0.2505   0.7656     H
H       0.1162   0.7495   0.7344     H
H       0.1162   0.7505   0.2344     H
C        0.117   0.0223   0.4937     C
C        0.117   0.4777   0.9937     C
C        0.117   0.5223   0.5063     C
C        0.117   0.9777   0.0063     C
C        0.133   0.2437   0.2723     C
C        0.133   0.2563   0.7723     C
C        0.133   0.7437   0.7277     C
C        0.133   0.7563   0.2277     C
H       0.1338   0.0156   0.4995     H
H       0.1338   0.4844   0.9995     H
H       0.1338   0.5156   0.5005     H
H       0.1338   0.9844   0.0005     H
O      0.13492  0.09239  0.48974     O
O      0.13492  0.40761  0.98974     O
O      0.13492  0.59239  0.51026     O
O      0.13492  0.90761  0.01026     O
C       0.1358   0.2384   0.2978     C
C       0.1358   0.2616   0.7978     C
C       0.1358   0.7384   0.7022     C
C       0.1358   0.7616   0.2022     C
C       0.1373   0.0668   0.4907     C
C       0.1373   0.4332   0.9907     C
C       0.1373   0.5668   0.5093     C
C       0.1373   0.9332   0.0093     C
O      0.14072  0.00694  0.66562     O
O      0.14072  0.49306  0.16562     O
O      0.14072  0.50694  0.33438     O
O      0.14072  0.99306  0.83438     O
Mo     0.14269  0.03085  0.81652    Mo
Mo     0.14269  0.46915  0.31652    Mo
Mo     0.14269  0.53085  0.18348    Mo
Mo     0.14269  0.96915  0.68348    Mo
Mo     0.14321  0.04167  0.68982    Mo
Mo     0.14321  0.45833  0.18982    Mo
Mo     0.14321  0.54167  0.31018    Mo
Mo     0.14321  0.95833  0.81018    Mo
O      0.14558  0.05641  0.78637     O
O      0.14558  0.44359  0.28637     O
O      0.14558  0.55641  0.21363     O
O      0.14558  0.94359  0.71363     O
O      0.14601  0.06165  0.72433     O
O      0.14601  0.43835  0.22433     O
O      0.14601  0.56165  0.27567     O
O      0.14601  0.93835  0.77567     O
H       0.1539   0.2427   0.2347     H
H       0.1539   0.2573   0.7347     H
H       0.1539   0.7427   0.7653     H
H       0.1539   0.7573   0.2653     H
C       0.1564   0.2407   0.2535     C
C       0.1564   0.2593   0.7535     C
C       0.1564   0.7407   0.7465     C
C       0.1564   0.7593   0.2465     C
O      0.15761  0.11508  0.76026     O
O      0.15761  0.38492  0.26026     O
O      0.15761  0.61508  0.23974     O
O      0.15761  0.88492  0.73974     O
O      0.15906  0.05479  0.49387     O
O      0.15906  0.44521  0.99387     O
O      0.15906  0.55479  0.50613     O
O      0.15906  0.94521  0.00613     O
C       0.1603   0.2326   0.3083     C
C       0.1603   0.2674   0.8083     C
C       0.1603   0.7326   0.6917     C
C       0.1603   0.7674   0.1917     C
H       0.1616   0.2296    0.327     H
H       0.1616   0.2704    0.827     H
H       0.1616   0.7296    0.673     H
H       0.1616   0.7704    0.173     H
O      0.16562  0.14072  0.49306     O
O      0.16562  0.35928  0.99306     O
O      0.16562  0.64072  0.50694     O
O      0.16562  0.85928  0.00694     O
Zn     0.17156  0.05894  0.75518    Zn
Zn     0.17156  0.44106  0.25518    Zn
Zn     0.17156  0.55894  0.24482    Zn
Zn     0.17156  0.94106  0.74482    Zn
H        0.173   0.1616   0.7704     H
H        0.173   0.3384   0.2704     H
H        0.173   0.6616   0.2296     H
H        0.173   0.8384   0.7296     H
O       0.1792  0.02386    0.808     O
O       0.1792  0.47614    0.308     O
O       0.1792  0.52386    0.192     O
O       0.1792  0.97614    0.692     O
O      0.18163  0.03218  0.69804     O
O      0.18163  0.46782  0.19804     O
O      0.18163  0.53218  0.30196     O
O      0.18163  0.96782  0.80196     O
C       0.1818   0.2351   0.2637     C
C       0.1818   0.2649   0.7637     C
C       0.1818   0.7351   0.7363     C
C       0.1818   0.7649   0.2363     C
C       0.1832   0.1127   0.7593     C
C       0.1832   0.3873   0.2593     C
C       0.1832   0.6127   0.2407     C
C       0.1832   0.8873   0.7407     C
Mo     0.18348  0.14269  0.53085    Mo
Mo     0.18348  0.35731  0.03085    Mo
Mo     0.18348  0.64269  0.46915    Mo
Mo     0.18348  0.85731  0.96915    Mo
C        0.185   0.2309   0.2919     C
C        0.185   0.2691   0.7919     C
C        0.185   0.7309   0.7081     C
C        0.185   0.7691   0.2081     C
O      0.18835  0.10399  0.52567     O
O      0.18835  0.39601  0.02567     O
O      0.18835  0.60399  0.47433     O
O      0.18835  0.89601  0.97433     O
Mo     0.18982  0.14321  0.45833    Mo
Mo     0.18982  0.35679  0.95833    Mo
Mo     0.18982  0.64321  0.54167    Mo
Mo     0.18982  0.85679  0.04167    Mo
Zn     0.19106  0.07844  0.49482    Zn
Zn     0.19106  0.42156  0.99482    Zn
Zn     0.19106  0.57844  0.50518    Zn
Zn     0.19106  0.92156  0.00518    Zn
O      0.19123  0.02488  0.75275     O
O      0.19123  0.47512  0.25275     O
O      0.19123  0.52488  0.24725     O
O      0.19123  0.97512  0.74725     O
C       0.1917   0.1603   0.7674     C
C       0.1917   0.3397   0.2674     C
C       0.1917   0.6603   0.2326     C
C       0.1917   0.8397   0.7326     C
O        0.192   0.1792  0.52386     O
O        0.192   0.3208  0.02386     O
O        0.192   0.6792  0.47614     O
O        0.192   0.8208  0.97614     O
O      0.19359  0.10442  0.46363     O
O      0.19359  0.39558  0.96363     O
O      0.19359  0.60442  0.53637     O
O      0.19359  0.89558  0.03637     O
Mo     0.19397  0.00266  0.71726    Mo
Mo     0.19397  0.49734  0.21726    Mo
Mo     0.19397  0.50266  0.28274    Mo
Mo     0.19397  0.99734  0.78274    Mo
O      0.19521  0.09094  0.75613     O
O      0.19521  0.40906  0.25613     O
O      0.19521  0.59094  0.24387     O
O      0.19521  0.90906  0.74387     O
H       0.1972    0.236     0.72     H
H       0.1972    0.264     0.22     H
H       0.1972    0.736     0.28     H
H       0.1972    0.764     0.78     H
O      0.19804  0.18163  0.46782     O
O      0.19804  0.31837  0.96782     O
O      0.19804  0.68163  0.53218     O
O      0.19804  0.81837  0.03218     O
H       0.2004   0.2019   0.7729     H
H       0.2004   0.2981   0.2729     H
H       0.2004   0.7019   0.2271     H
H       0.2004   0.7981   0.7271     H
H       0.2019   0.2271   0.2996     H
H       0.2019   0.2729   0.7996     H
H       0.2019   0.7271   0.7004     H
H       0.2019   0.7729   0.2004     H
C       0.2022   0.1358   0.7616     C
C       0.2022   0.3642   0.2616     C
C       0.2022   0.6358   0.2384     C
C       0.2022   0.8642   0.7384     C
C       0.2067   0.2322   0.2469     C
C       0.2067   0.2678   0.7469     C
C       0.2067   0.7322   0.7531     C
C       0.2067   0.7678   0.2531     C
C       0.2081    0.185   0.7691     C
C       0.2081    0.315   0.2691     C
C       0.2081    0.685   0.2309     C
C       0.2081    0.815   0.7309     C
Mo     0.20833  0.10679  0.56018    Mo
Mo     0.20833  0.39321  0.06018    Mo
Mo     0.20833  0.60679  0.43982    Mo
Mo     0.20833  0.89321  0.93982    Mo
C       0.2099   0.2497   0.7235     C
C       0.2099   0.2503   0.2235     C
C       0.2099   0.7497   0.2765     C
C       0.2099   0.7503   0.7765     C
O      0.21363  0.14558  0.55641     O
O      0.21363  0.35442  0.05641     O
O      0.21363  0.64558  0.44359     O
O      0.21363  0.85442  0.94359     O
Mo     0.21726  0.19397  0.49734    Mo
Mo     0.21726  0.30603  0.99734    Mo
Mo     0.21726  0.69397  0.50266    Mo
Mo     0.21726  0.80603  0.00266    Mo
O      0.21782  0.06837  0.55196     O
O      0.21782  0.43163  0.05196     O
O      0.21782  0.56837  0.44804     O
O      0.21782  0.93163  0.94804     O
Mo     0.21915  0.10731  0.43348    Mo
Mo     0.21915  0.39269  0.93348    Mo
Mo     0.21915  0.60731  0.56652    Mo
Mo     0.21915  0.89269  0.06652    Mo
H         0.22   0.1972    0.264     H
H         0.22   0.3028    0.764     H
H         0.22   0.6972    0.736     H
H         0.22   0.8028    0.236     H
C       0.2235   0.2099   0.2503     C
C       0.2235   0.2901   0.7503     C
C       0.2235   0.7099   0.7497     C
C       0.2235   0.7901   0.2497     C
O      0.22433  0.14601  0.43835     O
O      0.22433  0.35399  0.93835     O
O      0.22433  0.64601  0.56165     O
O      0.22433  0.85399  0.06165     O
O      0.22512  0.05877  0.49725     O
O      0.22512  0.44123  0.99725     O
O      0.22512  0.55877  0.50275     O
O      0.22512  0.94123  0.00275     O
O      0.22614   0.0708    0.442     O
O      0.22614   0.4292    0.942     O
O      0.22614   0.5708    0.558     O
O      0.22614   0.9292    0.058     O
H       0.2271   0.2004   0.7019     H
H       0.2271   0.2996   0.2019     H
H       0.2271   0.7004   0.2981     H
H       0.2271   0.7996   0.7981     H
C       0.2277    0.133   0.7563     C
C       0.2277    0.367   0.2563     C
C       0.2277    0.633   0.2437     C
C       0.2277    0.867   0.7437     C
H       0.2296    0.173   0.6616     H
H       0.2296    0.327   0.1616     H
H       0.2296    0.673   0.3384     H
H       0.2296    0.827   0.8384     H
C       0.2309   0.2081    0.685     C
C       0.2309   0.2919    0.185     C
C       0.2309   0.7081    0.315     C
C       0.2309   0.7919    0.815     C
C       0.2322   0.2469   0.2067     C
C       0.2322   0.2531   0.7067     C
C       0.2322   0.7469   0.7933     C
C       0.2322   0.7531   0.2933     C
C       0.2326   0.1917   0.6603     C
C       0.2326   0.3083   0.1603     C
C       0.2326   0.6917   0.3397     C
C       0.2326   0.8083   0.8397     C
H       0.2344   0.1162   0.7505     H
H       0.2344   0.3838   0.2505     H
H       0.2344   0.6162   0.2495     H
H       0.2344   0.8838   0.7495     H
H       0.2347   0.1539   0.2427     H
H       0.2347   0.3461   0.7427     H
H       0.2347   0.6539   0.7573     H
H       0.2347   0.8461   0.2573     H
C       0.2351   0.2363   0.6818     C
C       0.2351   0.2637   0.1818     C
C       0.2351   0.7363   0.3182     C
C       0.2351   0.7637   0.8182     C
H        0.236     0.22   0.8028     H
H        0.236     0.28   0.3028     H
H        0.236     0.72   0.1972     H
H        0.236     0.78   0.6972     H
C       0.2363   0.1818   0.7649     C
C       0.2363   0.3182   0.2649     C
C       0.2363   0.6818   0.2351     C
C       0.2363   0.8182   0.7351     C
C       0.2384   0.2022   0.6358     C
C       0.2384   0.2978   0.1358     C
C       0.2384   0.7022   0.3642     C
C       0.2384   0.7978   0.8642     C
O      0.23974  0.15761  0.61508     O
O      0.23974  0.34239  0.11508     O
O      0.23974  0.65761  0.38492     O
O      0.23974  0.84239  0.88492     O
C       0.2407   0.1832   0.6127     C
C       0.2407   0.2465   0.6564     C
C       0.2407   0.2535   0.1564     C
C       0.2407   0.3168   0.1127     C
C       0.2407   0.6832   0.3873     C
C       0.2407   0.7465   0.3436     C
C       0.2407   0.7535   0.8436     C
C       0.2407   0.8168   0.8873     C
H       0.2427   0.2347   0.1539     H
H       0.2427   0.2653   0.6539     H
H       0.2427   0.7347   0.8461     H
H       0.2427   0.7653   0.3461     H
O      0.24306  0.10928  0.58438     O
O      0.24306  0.39072  0.08438     O
O      0.24306  0.60928  0.41562     O
O      0.24306  0.89072  0.91562     O
C       0.2437   0.2277    0.633     C
C       0.2437   0.2723    0.133     C
C       0.2437   0.7277    0.367     C
C       0.2437   0.7723    0.867     C
O      0.24387  0.19521  0.59094     O
O      0.24387  0.30479  0.09094     O
O      0.24387  0.69521  0.40906     O
O      0.24387  0.80479  0.90906     O
Zn     0.24482  0.17156  0.55894    Zn
Zn     0.24482  0.32844  0.05894    Zn
Zn     0.24482  0.67156  0.44106    Zn
Zn     0.24482  0.82844  0.94106    Zn
C       0.2465   0.1564   0.7593     C
C       0.2465   0.3436   0.2593     C
C       0.2465   0.6564   0.2407     C
C       0.2465   0.8436   0.7407     C
C       0.2469   0.2067   0.2322     C
C       0.2469   0.2933   0.7322     C
C       0.2469   0.7067   0.7678     C
C       0.2469   0.7933   0.2678     C
O      0.24725  0.19123  0.52488     O
O      0.24725  0.30877  0.02488     O
O      0.24725  0.69123  0.47512     O
O      0.24725  0.80877  0.97512     O
Mo     0.24734  0.05603  0.53274    Mo
Mo     0.24734  0.44397  0.03274    Mo
Mo     0.24734  0.55603  0.46726    Mo
Mo     0.24734  0.94397  0.96726    Mo
H       0.2495   0.2344   0.6162     H
H       0.2495   0.2656   0.1162     H
H       0.2495   0.7344   0.3838     H
H       0.2495   0.7656   0.8838     H
C       0.2497   0.2235   0.7901     C
C       0.2497   0.2765   0.2901     C
C       0.2497   0.7235   0.2099     C
C       0.2497   0.7765   0.7099     C
C       0.2503   0.2235   0.2099     C
C       0.2503   0.2765   0.7099     C
C       0.2503   0.7235   0.7901     C
C       0.2503   0.7765   0.2901     C
H       0.2505   0.2344   0.3838     H
H       0.2505   0.2656   0.8838     H
H       0.2505   0.7344   0.6162     H
H       0.2505   0.7656   0.1162     H
Mo     0.25266  0.05603  0.46726    Mo
Mo     0.25266  0.44397  0.96726    Mo
Mo     0.25266  0.55603  0.53274    Mo
Mo     0.25266  0.94397  0.03274    Mo
O      0.25275  0.19123  0.47512     O
O      0.25275  0.30877  0.97512     O
O      0.25275  0.69123  0.52488     O
O      0.25275  0.80877  0.02488     O
C       0.2531   0.2067   0.7678     C
C       0.2531   0.2933   0.2678     C
C       0.2531   0.7067   0.2322     C
C       0.2531   0.7933   0.7322     C
C       0.2535   0.1564   0.2407     C
C       0.2535   0.3436   0.7407     C
C       0.2535   0.6564   0.7593     C
C       0.2535   0.8436   0.2593     C
Zn     0.25518  0.17156  0.44106    Zn
Zn     0.25518  0.32844  0.94106    Zn
Zn     0.25518  0.67156  0.55894    Zn
Zn     0.25518  0.82844  0.05894    Zn
O      0.25613  0.19521  0.40906     O
O      0.25613  0.30479  0.90906     O
O      0.25613  0.69521  0.59094     O
O      0.25613  0.80479  0.09094     O
C       0.2563   0.2277    0.367     C
C       0.2563   0.2723    0.867     C
C       0.2563   0.7277    0.633     C
C       0.2563   0.7723    0.133     C
O      0.25694  0.10928  0.41562     O
O      0.25694  0.39072  0.91562     O
O      0.25694  0.60928  0.58438     O
O      0.25694  0.89072  0.08438     O
H       0.2573   0.2347   0.8461     H
H       0.2573   0.2653   0.3461     H
H       0.2573   0.7347   0.1539     H
H       0.2573   0.7653   0.6539     H
C       0.2593   0.1832   0.3873     C
C       0.2593   0.2465   0.3436     C
C       0.2593   0.2535   0.8436     C
C       0.2593   0.3168   0.8873     C
C       0.2593   0.6832   0.6127     C
C       0.2593   0.7465   0.6564     C
C       0.2593   0.7535   0.1564     C
C       0.2593   0.8168   0.1127     C
O      0.26026  0.15761  0.38492     O
O      0.26026  0.34239  0.88492     O
O      0.26026  0.65761  0.61508     O
O      0.26026  0.84239  0.11508     O
C       0.2616   0.2022   0.3642     C
C       0.2616   0.2978   0.8642     C
C       0.2616   0.7022   0.6358     C
C       0.2616   0.7978   0.1358     C
C       0.2637   0.1818   0.2351     C
C       0.2637   0.3182   0.7351     C
C       0.2637   0.6818   0.7649     C
C       0.2637   0.8182   0.2649     C
H        0.264     0.22   0.1972     H
H        0.264     0.28   0.6972     H
H        0.264     0.72   0.8028     H
H        0.264     0.78   0.3028     H
C       0.2649   0.2363   0.3182     C
C       0.2649   0.2637   0.8182     C
C       0.2649   0.7363   0.6818     C
C       0.2649   0.7637   0.1818     C
H       0.2653   0.1539   0.7573     H
H       0.2653   0.3461   0.2573     H
H       0.2653   0.6539   0.2427     H
H       0.2653   0.8461   0.7427     H
H       0.2656   0.1162   0.2495     H
H       0.2656   0.3838   0.7495     H
H       0.2656   0.6162   0.7505     H
H       0.2656   0.8838   0.2505     H
C       0.2674   0.1917   0.3397     C
C       0.2674   0.3083   0.8397     C
C       0.2674   0.6917   0.6603     C
C       0.2674   0.8083   0.1603     C
C       0.2678   0.2469   0.7933     C
C       0.2678   0.2531   0.2933     C
C       0.2678   0.7469   0.2067     C
C       0.2678   0.7531   0.7067     C
C       0.2691   0.2081    0.315     C
C       0.2691   0.2919    0.815     C
C       0.2691   0.7081    0.685     C
C       0.2691   0.7919    0.185     C
H       0.2704    0.173   0.3384     H
H       0.2704    0.327   0.8384     H
H       0.2704    0.673   0.6616     H
H       0.2704    0.827   0.1616     H
C       0.2723    0.133   0.2437     C
C       0.2723    0.367   0.7437     C
C       0.2723    0.633   0.7563     C
C       0.2723    0.867   0.2563     C
H       0.2729   0.2004   0.2981     H
H       0.2729   0.2996   0.7981     H
H       0.2729   0.7004   0.7019     H
H       0.2729   0.7996   0.2019     H
O      0.27386   0.0708    0.558     O
O      0.27386   0.4292    0.058     O
O      0.27386   0.5708    0.442     O
O      0.27386   0.9292    0.942     O
O      0.27488  0.05877  0.50275     O
O      0.27488  0.44123  0.00275     O
O      0.27488  0.55877  0.49725     O
O      0.27488  0.94123  0.99725     O
O      0.27567  0.14601  0.56165     O
O      0.27567  0.35399  0.06165     O
O      0.27567  0.64601  0.43835     O
O      0.27567  0.85399  0.93835     O
C       0.2765   0.2099   0.7497     C
C       0.2765   0.2901   0.2497     C
C       0.2765   0.7099   0.2503     C
C       0.2765   0.7901   0.7503     C
H         0.28   0.1972    0.736     H
H         0.28   0.3028    0.236     H
H         0.28   0.6972    0.264     H
H         0.28   0.8028    0.764     H
Mo     0.28085  0.10731  0.56652    Mo
Mo     0.28085  0.39269  0.06652    Mo
Mo     0.28085  0.60731  0.43348    Mo
Mo     0.28085  0.89269  0.93348    Mo
O      0.28218  0.06837  0.44804     O
O      0.28218  0.43163  0.94804     O
O      0.28218  0.56837  0.55196     O
O      0.28218  0.93163  0.05196     O
Mo     0.28274  0.19397  0.50266    Mo
Mo     0.28274  0.30603  0.00266    Mo
Mo     0.28274  0.69397  0.49734    Mo
Mo     0.28274  0.80603  0.99734    Mo
O      0.28637  0.14558  0.44359     O
O      0.28637  0.35442  0.94359     O
O      0.28637  0.64558  0.55641     O
O      0.28637  0.85442  0.05641     O
C       0.2901   0.2497   0.2765     C
C       0.2901   0.2503   0.7765     C
C       0.2901   0.7497   0.7235     C
C       0.2901   0.7503   0.2235     C
Mo     0.29167  0.10679  0.43982    Mo
Mo     0.29167  0.39321  0.93982    Mo
Mo     0.29167  0.60679  0.56018    Mo
Mo     0.29167  0.89321  0.06018    Mo
C       0.2919    0.185   0.2309     C
C       0.2919    0.315   0.7309     C
C       0.2919    0.685   0.7691     C
C       0.2919    0.815   0.2691     C
C       0.2933   0.2322   0.7531     C
C       0.2933   0.2678   0.2531     C
C       0.2933   0.7322   0.2469     C
C       0.2933   0.7678   0.7469     C
C       0.2978   0.1358   0.2384     C
C       0.2978   0.3642   0.7384     C
C       0.2978   0.6358   0.7616     C
C       0.2978   0.8642   0.2616     C
H       0.2981   0.2271   0.7004     H
H       0.2981   0.2729   0.2004     H
H       0.2981   0.7271   0.2996     H
H       0.2981   0.7729   0.7996     H
H       0.2996   0.2019   0.2271     H
H       0.2996   0.2981   0.7271     H
H       0.2996   0.7019   0.7729     H
H       0.2996   0.7981   0.2729     H
O      0.30196  0.18163  0.53218     O
O      0.30196  0.31837  0.03218     O
O      0.30196  0.68163  0.46782     O
O      0.30196  0.81837  0.96782     O
H       0.3028    0.236     0.28     H
H       0.3028    0.264     0.78     H
H       0.3028    0.736     0.72     H
H       0.3028    0.764     0.22     H
O      0.30479  0.09094  0.24387     O
O      0.30479  0.40906  0.74387     O
O      0.30479  0.59094  0.75613     O
O      0.30479  0.90906  0.25613     O
Mo     0.30603  0.00266  0.28274    Mo
Mo     0.30603  0.49734  0.78274    Mo
Mo     0.30603  0.50266  0.71726    Mo
Mo     0.30603  0.99734  0.21726    Mo
O      0.30641  0.10442  0.53637     O
O      0.30641  0.39558  0.03637     O
O      0.30641  0.60442  0.46363     O
O      0.30641  0.89558  0.96363     O
O        0.308   0.1792  0.47614     O
O        0.308   0.3208  0.97614     O
O        0.308   0.6792  0.52386     O
O        0.308   0.8208  0.02386     O
C       0.3083   0.1603   0.2326     C
C       0.3083   0.3397   0.7326     C
C       0.3083   0.6603   0.7674     C
C       0.3083   0.8397   0.2674     C
O      0.30877  0.02488  0.24725     O
O      0.30877  0.47512  0.74725     O
O      0.30877  0.52488  0.75275     O
O      0.30877  0.97512  0.25275     O
Zn     0.30894  0.07844  0.50518    Zn
Zn     0.30894  0.42156  0.00518    Zn
Zn     0.30894  0.57844  0.49482    Zn
Zn     0.30894  0.92156  0.99482    Zn
Mo     0.31018  0.14321  0.54167    Mo
Mo     0.31018  0.35679  0.04167    Mo
Mo     0.31018  0.64321  0.45833    Mo
Mo     0.31018  0.85679  0.95833    Mo
O      0.31165  0.10399  0.47433     O
O      0.31165  0.39601  0.97433     O
O      0.31165  0.60399  0.52567     O
O      0.31165  0.89601  0.02567     O
C        0.315   0.2309   0.7081     C
C        0.315   0.2691   0.2081     C
C        0.315   0.7309   0.2919     C
C        0.315   0.7691   0.7919     C
Mo     0.31652  0.14269  0.46915    Mo
Mo     0.31652  0.35731  0.96915    Mo
Mo     0.31652  0.64269  0.53085    Mo
Mo     0.31652  0.85731  0.03085    Mo
C       0.3168   0.1127   0.2407     C
C       0.3168   0.3873   0.7407     C
C       0.3168   0.6127   0.7593     C
C       0.3168   0.8873   0.2593     C
C       0.3182   0.2351   0.7363     C
C       0.3182   0.2649   0.2363     C
C       0.3182   0.7351   0.2637     C
C       0.3182   0.7649   0.7637     C
O      0.31837  0.03218  0.30196     O
O      0.31837  0.46782  0.80196     O
O      0.31837  0.53218  0.69804     O
O      0.31837  0.96782  0.19804     O
O       0.3208  0.02386    0.192     O
O       0.3208  0.47614    0.692     O
O       0.3208  0.52386    0.808     O
O       0.3208  0.97614    0.308     O
H        0.327   0.1616   0.2296     H
H        0.327   0.3384   0.7296     H
H        0.327   0.6616   0.7704     H
H        0.327   0.8384   0.2704     H
Zn     0.32844  0.05894  0.24482    Zn
Zn     0.32844  0.44106  0.74482    Zn
Zn     0.32844  0.55894  0.75518    Zn
Zn     0.32844  0.94106  0.25518    Zn
O      0.33438  0.14072  0.50694     O
O      0.33438  0.35928  0.00694     O
O      0.33438  0.64072  0.49306     O
O      0.33438  0.85928  0.99306     O
H       0.3384   0.2296    0.673     H
H       0.3384   0.2704    0.173     H
H       0.3384   0.7296    0.327     H
H       0.3384   0.7704    0.827     H
C       0.3397   0.2326   0.6917     C
C       0.3397   0.2674   0.1917     C
C       0.3397   0.7326   0.3083     C
C       0.3397   0.7674   0.8083     C
O      0.34094  0.05479  0.50613     O
O      0.34094  0.44521  0.00613     O
O      0.34094  0.55479  0.49387     O
O      0.34094  0.94521  0.99387     O
O      0.34239  0.11508  0.23974     O
O      0.34239  0.38492  0.73974     O
O      0.34239  0.61508  0.76026     O
O      0.34239  0.88492  0.26026     O
C       0.3436   0.2407   0.7465     C
C       0.3436   0.2593   0.2465     C
C       0.3436   0.7407   0.2535     C
C       0.3436   0.7593   0.7535     C
H       0.3461   0.2427   0.7653     H
H       0.3461   0.2573   0.2653     H
H       0.3461   0.7427   0.2347     H
H       0.3461   0.7573   0.7347     H
O      0.35399  0.06165  0.27567     O
O      0.35399  0.43835  0.77567     O
O      0.35399  0.56165  0.72433     O
O      0.35399  0.93835  0.22433     O
O      0.35442  0.05641  0.21363     O
O      0.35442  0.44359  0.71363     O
O      0.35442  0.55641  0.78637     O
O      0.35442  0.94359  0.28637     O
Mo     0.35679  0.04167  0.31018    Mo
Mo     0.35679  0.45833  0.81018    Mo
Mo     0.35679  0.54167  0.68982    Mo
Mo     0.35679  0.95833  0.18982    Mo
Mo     0.35731  0.03085  0.18348    Mo
Mo     0.35731  0.46915  0.68348    Mo
Mo     0.35731  0.53085  0.81652    Mo
Mo     0.35731  0.96915  0.31652    Mo
O      0.35928  0.00694  0.33438     O
O      0.35928  0.49306  0.83438     O
O      0.35928  0.50694  0.66562     O
O      0.35928  0.99306  0.16562     O
C       0.3627   0.0668   0.5093     C
C       0.3627   0.4332   0.0093     C
C       0.3627   0.5668   0.4907     C
C       0.3627   0.9332   0.9907     C
C       0.3642   0.2384   0.7022     C
C       0.3642   0.2616   0.2022     C
C       0.3642   0.7384   0.2978     C
C       0.3642   0.7616   0.7978     C
O      0.36508  0.09239  0.51026     O
O      0.36508  0.40761  0.01026     O
O      0.36508  0.59239  0.48974     O
O      0.36508  0.90761  0.98974     O
H       0.3662   0.0156   0.5005     H
H       0.3662   0.4844   0.0005     H
H       0.3662   0.5156   0.4995     H
H       0.3662   0.9844   0.9995     H
C        0.367   0.2437   0.7277     C
C        0.367   0.2563   0.2277     C
C        0.367   0.7437   0.2723     C
C        0.367   0.7563   0.7723     C
C        0.383   0.0223   0.5063     C
C        0.383   0.4777   0.0063     C
C        0.383   0.5223   0.4937     C
C        0.383   0.9777   0.9937     C
H       0.3838   0.2495   0.7344     H
H       0.3838   0.2505   0.2344     H
H       0.3838   0.7495   0.2656     H
H       0.3838   0.7505   0.7656     H
O      0.38492  0.23974  0.65761     O
O      0.38492  0.26026  0.15761     O
O      0.38492  0.73974  0.34239     O
O      0.38492  0.76026  0.84239     O
C       0.3858   0.0478   0.5116     C
C       0.3858   0.4522   0.0116     C
C       0.3858   0.5478   0.4884     C
C       0.3858   0.9522   0.9884     C
C       0.3873   0.2407   0.6832     C
C       0.3873   0.2593   0.1832     C
C       0.3873   0.7407   0.3168     C
C       0.3873   0.7593   0.8168     C
O      0.39072  0.08438  0.24306     O
O      0.39072  0.41562  0.74306     O
O      0.39072  0.58438  0.75694     O
O      0.39072  0.91562  0.25694     O
Mo     0.39269  0.06652  0.28085    Mo
Mo     0.39269  0.43348  0.78085    Mo
Mo     0.39269  0.56652  0.71915    Mo
Mo     0.39269  0.93348  0.21915    Mo
Mo     0.39321  0.06018  0.20833    Mo
Mo     0.39321  0.43982  0.70833    Mo
Mo     0.39321  0.56018  0.79167    Mo
Mo     0.39321  0.93982  0.29167    Mo
O      0.39558  0.03637  0.30641     O
O      0.39558  0.46363  0.80641     O
O      0.39558  0.53637  0.69359     O
O      0.39558  0.96363  0.19359     O
O      0.39601  0.02567  0.18835     O
O      0.39601  0.47433  0.68835     O
O      0.39601  0.52567  0.81165     O
O      0.39601  0.97433  0.31165     O
H       0.4039   0.0153   0.9927     H
H       0.4039   0.4847   0.4927     H
H       0.4039   0.5153   0.0073     H
H       0.4039   0.9847   0.5073     H
C       0.4064   0.0035   0.5093     C
C       0.4064   0.4965   0.0093     C
C       0.4064   0.5035   0.4907     C
C       0.4064   0.9965   0.9907     C
O      0.40761  0.01026  0.36508     O
O      0.40761  0.48974  0.86508     O
O      0.40761  0.51026  0.63492     O
O      0.40761  0.98974  0.13492     O
O      0.40906  0.24387  0.69521     O
O      0.40906  0.25613  0.19521     O
O      0.40906  0.74387  0.30479     O
O      0.40906  0.75613  0.80479     O
C       0.4103   0.0583   0.5174     C
C       0.4103   0.4417   0.0174     C
C       0.4103   0.5583   0.4826     C
C       0.4103   0.9417   0.9826     C
H       0.4116    0.077   0.5204     H
H       0.4116    0.423   0.0204     H
H       0.4116    0.577   0.4796     H
H       0.4116    0.923   0.9796     H
O      0.41562  0.24306  0.60928     O
O      0.41562  0.25694  0.10928     O
O      0.41562  0.74306  0.39072     O
O      0.41562  0.75694  0.89072     O
Zn     0.42156  0.00518  0.30894    Zn
Zn     0.42156  0.49482  0.80894    Zn
Zn     0.42156  0.50518  0.69106    Zn
Zn     0.42156  0.99482  0.19106    Zn
H        0.423   0.0204   0.4116     H
H        0.423   0.4796   0.9116     H
H        0.423   0.5204   0.5884     H
H        0.423   0.9796   0.0884     H
O       0.4292    0.058  0.27386     O
O       0.4292    0.442  0.77386     O
O       0.4292    0.558  0.72614     O
O       0.4292    0.942  0.22614     O
O      0.43163  0.05196  0.21782     O
O      0.43163  0.44804  0.71782     O
O      0.43163  0.55196  0.78218     O
O      0.43163  0.94804  0.28218     O
C       0.4318   0.0137   0.5149     C
C       0.4318   0.4863   0.0149     C
C       0.4318   0.5137   0.4851     C
C       0.4318   0.9863   0.9851     C
C       0.4332   0.0093   0.3627     C
C       0.4332   0.4907   0.8627     C
C       0.4332   0.5093   0.6373     C
C       0.4332   0.9907   0.1373     C
Mo     0.43348  0.21915  0.10731    Mo
Mo     0.43348  0.28085  0.60731    Mo
Mo     0.43348  0.71915  0.89269    Mo
Mo     0.43348  0.78085  0.39269    Mo
C        0.435   0.0419   0.5191     C
C        0.435   0.4581   0.0191     C
C        0.435   0.5419   0.4809     C
C        0.435   0.9581   0.9809     C
O      0.43835  0.22433  0.14601     O
O      0.43835  0.27567  0.64601     O
O      0.43835  0.72433  0.85399     O
O      0.43835  0.77567  0.35399     O
Mo     0.43982  0.20833  0.60679    Mo
Mo     0.43982  0.29167  0.10679    Mo
Mo     0.43982  0.70833  0.39321    Mo
Mo     0.43982  0.79167  0.89321    Mo
Zn     0.44106  0.24482  0.67156    Zn
Zn     0.44106  0.25518  0.17156    Zn
Zn     0.44106  0.74482  0.32844    Zn
Zn     0.44106  0.75518  0.82844    Zn
O      0.44123  0.00275  0.27488     O
O      0.44123  0.49725  0.77488     O
O      0.44123  0.50275  0.72512     O
O      0.44123  0.99725  0.22512     O
C       0.4417   0.0174   0.4103     C
C       0.4417   0.4826   0.9103     C
C       0.4417   0.5174   0.5897     C
C       0.4417   0.9826   0.0897     C
O        0.442  0.22614   0.0708     O
O        0.442  0.27386   0.5708     O
O        0.442  0.72614   0.9292     O
O        0.442  0.77386   0.4292     O
O      0.44359  0.21363  0.64558     O
O      0.44359  0.28637  0.14558     O
O      0.44359  0.71363  0.35442     O
O      0.44359  0.78637  0.85442     O
Mo     0.44397  0.03274  0.24734    Mo
Mo     0.44397  0.46726  0.74734    Mo
Mo     0.44397  0.53274  0.75266    Mo
Mo     0.44397  0.96726  0.25266    Mo
O      0.44521  0.00613  0.34094     O
O      0.44521  0.49387  0.84094     O
O      0.44521  0.50613  0.65906     O
O      0.44521  0.99387  0.15906     O
H       0.4472     0.03    0.014     H
H       0.4472     0.47    0.514     H
H       0.4472     0.53    0.986     H
H       0.4472     0.97    0.486     H
O      0.44804  0.21782  0.56837     O
O      0.44804  0.28218  0.06837     O
O      0.44804  0.71782  0.43163     O
O      0.44804  0.78218  0.93163     O
H       0.4504   0.0229   0.4519     H
H       0.4504   0.4771   0.9519     H
H       0.4504   0.5229   0.5481     H
H       0.4504   0.9771   0.0481     H
H       0.4519   0.0496   0.5229     H
H       0.4519   0.4504   0.0229     H
H       0.4519   0.5496   0.4771     H
H       0.4519   0.9504   0.9771     H
C       0.4522   0.0116   0.3858     C
C       0.4522   0.4884   0.8858     C
C       0.4522   0.5116   0.6142     C
C       0.4522   0.9884   0.1142     C
C       0.4567   0.0031   0.9822     C
C       0.4567   0.4969   0.4822     C
C       0.4567   0.5031   0.0178     C
C       0.4567   0.9969   0.5178     C
C       0.4581   0.0191    0.435     C
C       0.4581   0.4809    0.935     C
C       0.4581   0.5191    0.565     C
C       0.4581   0.9809    0.065     C
Mo     0.45833  0.18982  0.14321    Mo
Mo     0.45833  0.31018  0.64321    Mo
Mo     0.45833  0.68982  0.85679    Mo
Mo     0.45833  0.81018  0.35679    Mo
C       0.4599   0.0265   0.0003     C
C       0.4599   0.4735   0.5003     C
C       0.4599   0.5265   0.9997     C
C       0.4599   0.9735   0.4997     C
O      0.46363  0.19359  0.10442     O
O      0.46363  0.30641  0.60442     O
O      0.46363  0.69359  0.89558     O
O      0.46363  0.80641  0.39558     O
Mo     0.46726  0.24734  0.55603    Mo
Mo     0.46726  0.25266  0.05603    Mo
Mo     0.46726  0.74734  0.44397    Mo
Mo     0.46726  0.75266  0.94397    Mo
O      0.46782  0.19804  0.18163     O
O      0.46782  0.30196  0.68163     O
O      0.46782  0.69804  0.81837     O
O      0.46782  0.80196  0.31837     O
Mo     0.46915  0.18348  0.64269    Mo
Mo     0.46915  0.31652  0.14269    Mo
Mo     0.46915  0.68348  0.35731    Mo
Mo     0.46915  0.81652  0.85731    Mo
H         0.47    0.014   0.5528     H
H         0.47    0.486   0.0528     H
H         0.47    0.514   0.4472     H
H         0.47    0.986   0.9472     H
C       0.4735   0.0003   0.5401     C
C       0.4735   0.4997   0.0401     C
C       0.4735   0.5003   0.4599     C
C       0.4735   0.9997   0.9599     C
O      0.47433  0.18835  0.60399     O
O      0.47433  0.31165  0.10399     O
O      0.47433  0.68835  0.39601     O
O      0.47433  0.81165  0.89601     O
O      0.47512  0.24725  0.69123     O
O      0.47512  0.25275  0.19123     O
O      0.47512  0.74725  0.30877     O
O      0.47512  0.75275  0.80877     O
O      0.47614    0.192   0.6792     O
O      0.47614    0.308   0.1792     O
O      0.47614    0.692   0.3208     O
O      0.47614    0.808   0.8208     O
H       0.4771   0.0481   0.0496     H
H       0.4771   0.4519   0.5496     H
H       0.4771   0.5481   0.9504     H
H       0.4771   0.9519   0.4504     H
C       0.4777   0.0063    0.383     C
C       0.4777   0.4937    0.883     C
C       0.4777   0.5063    0.617     C
C       0.4777   0.9937    0.117     C
H       0.4796   0.0884    0.077     H
H       0.4796   0.4116    0.577     H
H       0.4796   0.5884    0.923     H
H       0.4796   0.9116    0.423     H
C       0.4809    0.065   0.0419     C
C       0.4809    0.435   0.5419     C
C       0.4809    0.565   0.9581     C
C       0.4809    0.935   0.4581     C
C       0.4822   0.0433   0.9969     C
C       0.4822   0.4567   0.4969     C
C       0.4822   0.5433   0.0031     C
C       0.4822   0.9567   0.5031     C
C       0.4826   0.0897   0.0583     C
C       0.4826   0.4103   0.5583     C
C       0.4826   0.5897   0.9417     C
C       0.4826   0.9103   0.4417     C
H       0.4844   0.0005   0.3662     H
H       0.4844   0.4995   0.8662     H
H       0.4844   0.5005   0.6338     H
H       0.4844   0.9995   0.1338     H
H       0.4847   0.0073   0.9039     H
H       0.4847   0.4927   0.4039     H
H       0.4847   0.5073   0.0961     H
H       0.4847   0.9927   0.5961     H
C       0.4851   0.0682   0.0137     C
C       0.4851   0.4318   0.5137     C
C       0.4851   0.5682   0.9863     C
C       0.4851   0.9318   0.4863     C
H        0.486   0.0528     0.47     H
H        0.486   0.4472     0.97     H
H        0.486   0.5528     0.53     H
H        0.486   0.9472     0.03     H
C       0.4863   0.0149   0.4318     C
C       0.4863   0.4851   0.9318     C
C       0.4863   0.5149   0.5682     C
C       0.4863   0.9851   0.0682     C
C       0.4884   0.1142   0.0478     C
C       0.4884   0.3858   0.5478     C
C       0.4884   0.6142   0.9522     C
C       0.4884   0.8858   0.4522     C
O      0.48974  0.13492  0.09239     O
O      0.48974  0.36508  0.59239     O
O      0.48974  0.63492  0.90761     O
O      0.48974  0.86508  0.40761     O
C       0.4907   0.0936   0.0035     C
C       0.4907   0.1373   0.0668     C
C       0.4907   0.3627   0.5668     C
C       0.4907   0.4064   0.5035     C
C       0.4907   0.5936   0.9965     C
C       0.4907   0.6373   0.9332     C
C       0.4907   0.8627   0.4332     C
C       0.4907   0.9064   0.4965     C
H       0.4927   0.0961   0.9847     H
H       0.4927   0.4039   0.4847     H
H       0.4927   0.5961   0.0153     H
H       0.4927   0.9039   0.5153     H
O      0.49306  0.16562  0.14072     O
O      0.49306  0.33438  0.64072     O
O      0.49306  0.66562  0.85928     O
O      0.49306  0.83438  0.35928     O
C       0.4937    0.117   0.0223     C
C       0.4937    0.383   0.5223     C
C       0.4937    0.617   0.9777     C
C       0.4937    0.883   0.4777     C
O      0.49387  0.15906  0.05479     O
O      0.49387  0.34094  0.55479     O
O      0.49387  0.65906  0.94521     O
O      0.49387  0.84094  0.44521     O
Zn     0.49482  0.19106  0.07844    Zn
Zn     0.49482  0.30894  0.57844    Zn
Zn     0.49482  0.69106  0.92156    Zn
Zn     0.49482  0.80894  0.42156    Zn
C       0.4965   0.0093   0.4064     C
C       0.4965   0.4907   0.9064     C
C       0.4965   0.5093   0.5936     C
C       0.4965   0.9907   0.0936     C
C       0.4969   0.0178   0.9567     C
C       0.4969   0.4822   0.4567     C
C       0.4969   0.5178   0.0433     C
C       0.4969   0.9822   0.5433     C
O      0.49725  0.22512  0.05877     O
O      0.49725  0.27488  0.55877     O
O      0.49725  0.72512  0.94123     O
O      0.49725  0.77488  0.44123     O
Mo     0.49734  0.21726  0.19397    Mo
Mo     0.49734  0.28274  0.69397    Mo
Mo     0.49734  0.71726  0.80603    Mo
Mo     0.49734  0.78274  0.30603    Mo
H       0.4995   0.1338   0.0156     H
H       0.4995   0.3662   0.5156     H
H       0.4995   0.6338   0.9844     H
H       0.4995   0.8662   0.4844     H
C       0.4997   0.0401   0.4735     C
C       0.4997   0.4599   0.9735     C
C       0.4997   0.5401   0.5265     C
C       0.4997   0.9599   0.0265     C
C       0.5003   0.0401   0.9735     C
C       0.5003   0.4599   0.4735     C
C       0.5003   0.5401   0.0265     C
C       0.5003   0.9599   0.5265     C
H       0.5005   0.1338   0.5156     H
H       0.5005   0.3662   0.0156     H
H       0.5005   0.6338   0.4844     H
H       0.5005   0.8662   0.9844     H
Mo     0.50266  0.21726  0.69397    Mo
Mo     0.50266  0.28274  0.19397    Mo
Mo     0.50266  0.71726  0.30603    Mo
Mo     0.50266  0.78274  0.80603    Mo
O      0.50275  0.22512  0.55877     O
O      0.50275  0.27488  0.05877     O
O      0.50275  0.72512  0.44123     O
O      0.50275  0.77488  0.94123     O
C       0.5031   0.0178   0.4567     C
C       0.5031   0.4822   0.9567     C
C       0.5031   0.5178   0.5433     C
C       0.5031   0.9822   0.0433     C
C       0.5035   0.0093   0.9064     C
C       0.5035   0.4907   0.4064     C
C       0.5035   0.5093   0.0936     C
C       0.5035   0.9907   0.5936     C
Zn     0.50518  0.19106  0.57844    Zn
Zn     0.50518  0.30894  0.07844    Zn
Zn     0.50518  0.69106  0.42156    Zn
Zn     0.50518  0.80894  0.92156    Zn
O      0.50613  0.15906  0.55479     O
O      0.50613  0.34094  0.05479     O
O      0.50613  0.65906  0.44521     O
O      0.50613  0.84094  0.94521     O
C       0.5063    0.117   0.5223     C
C       0.5063    0.383   0.0223     C
C       0.5063    0.617   0.4777     C
C       0.5063    0.883   0.9777     C
O      0.50694  0.16562  0.64072     O
O      0.50694  0.33438  0.14072     O
O      0.50694  0.66562  0.35928     O
O      0.50694  0.83438  0.85928     O
H       0.5073   0.0961   0.4847     H
H       0.5073   0.4039   0.9847     H
H       0.5073   0.5961   0.5153     H
H       0.5073   0.9039   0.0153     H
C       0.5093   0.0936   0.5035     C
C       0.5093   0.1373   0.5668     C
C       0.5093   0.3627   0.0668     C
C       0.5093   0.4064   0.0035     C
C       0.5093   0.5936   0.4965     C
C       0.5093   0.6373   0.4332     C
C       0.5093   0.8627   0.9332     C
C       0.5093   0.9064   0.9965     C
O      0.51026  0.13492  0.59239     O
O      0.51026  0.36508  0.09239     O
O      0.51026  0.63492  0.40761     O
O      0.51026  0.86508  0.90761     O
C       0.5116   0.1142   0.5478     C
C       0.5116   0.3858   0.0478     C
C       0.5116   0.6142   0.4522     C
C       0.5116   0.8858   0.9522     C
C       0.5137   0.0149   0.9318     C
C       0.5137   0.4851   0.4318     C
C       0.5137   0.5149   0.0682     C
C       0.5137   0.9851   0.5682     C
H        0.514   0.0528     0.97     H
H        0.514   0.4472     0.47     H
H        0.514   0.5528     0.03     H
H        0.514   0.9472     0.53     H
C       0.5149   0.0682   0.5137     C
C       0.5149   0.4318   0.0137     C
C       0.5149   0.5682   0.4863     C
C       0.5149   0.9318   0.9863     C
H       0.5153   0.0073   0.4039     H
H       0.5153   0.4927   0.9039     H
H       0.5153   0.5073   0.5961     H
H       0.5153   0.9927   0.0961     H
H       0.5156   0.0005   0.8662     H
H       0.5156   0.4995   0.3662     H
H       0.5156   0.5005   0.1338     H
H       0.5156   0.9995   0.6338     H
C       0.5174   0.0897   0.5583     C
C       0.5174   0.4103   0.0583     C
C       0.5174   0.5897   0.4417     C
C       0.5174   0.9103   0.9417     C
C       0.5178   0.0433   0.4969     C
C       0.5178   0.4567   0.9969     C
C       0.5178   0.5433   0.5031     C
C       0.5178   0.9567   0.0031     C
C       0.5191    0.065   0.5419     C
C       0.5191    0.435   0.0419     C
C       0.5191    0.565   0.4581     C
C       0.5191    0.935   0.9581     C
H       0.5204   0.0884    0.577     H
H       0.5204   0.4116    0.077     H
H       0.5204   0.5884    0.423     H
H       0.5204   0.9116    0.923     H
C       0.5223   0.0063    0.883     C
C       0.5223   0.4937    0.383     C
C       0.5223   0.5063    0.117     C
C       0.5223   0.9937    0.617     C
H       0.5229   0.0481   0.5496     H
H       0.5229   0.4519   0.0496     H
H       0.5229   0.5481   0.4504     H
H       0.5229   0.9519   0.9504     H
O      0.52386    0.192   0.1792     O
O      0.52386    0.308   0.6792     O
O      0.52386    0.692   0.8208     O
O      0.52386    0.808   0.3208     O
O      0.52488  0.24725  0.19123     O
O      0.52488  0.25275  0.69123     O
O      0.52488  0.74725  0.80877     O
O      0.52488  0.75275  0.30877     O
O      0.52567  0.18835  0.10399     O
O      0.52567  0.31165  0.60399     O
O      0.52567  0.68835  0.89601     O
O      0.52567  0.81165  0.39601     O
C       0.5265   0.0003   0.0401     C
C       0.5265   0.4997   0.5401     C
C       0.5265   0.5003   0.9599     C
C       0.5265   0.9997   0.4599     C
H         0.53    0.014   0.0528     H
H         0.53    0.486   0.5528     H
H         0.53    0.514   0.9472     H
H         0.53    0.986   0.4472     H
Mo     0.53085  0.18348  0.14269    Mo
Mo     0.53085  0.31652  0.64269    Mo
Mo     0.53085  0.68348  0.85731    Mo
Mo     0.53085  0.81652  0.35731    Mo
O      0.53218  0.19804  0.68163     O
O      0.53218  0.30196  0.18163     O
O      0.53218  0.69804  0.31837     O
O      0.53218  0.80196  0.81837     O
Mo     0.53274  0.24734  0.05603    Mo
Mo     0.53274  0.25266  0.55603    Mo
Mo     0.53274  0.74734  0.94397    Mo
Mo     0.53274  0.75266  0.44397    Mo
O      0.53637  0.19359  0.60442     O
O      0.53637  0.30641  0.10442     O
O      0.53637  0.69359  0.39558     O
O      0.53637  0.80641  0.89558     O
C       0.5401   0.0265   0.5003     C
C       0.5401   0.4735   0.0003     C
C       0.5401   0.5265   0.4997     C
C       0.5401   0.9735   0.9997     C
Mo     0.54167  0.18982  0.64321    Mo
Mo     0.54167  0.31018  0.14321    Mo
Mo     0.54167  0.68982  0.35679    Mo
Mo     0.54167  0.81018  0.85679    Mo
C       0.5419   0.0191    0.935     C
C       0.5419   0.4809    0.435     C
C       0.5419   0.5191    0.065     C
C       0.5419   0.9809    0.565     C
C       0.5433   0.0031   0.4822     C
C       0.5433   0.4969   0.9822     C
C       0.5433   0.5031   0.5178     C
C       0.5433   0.9969   0.0178     C
C       0.5478   0.0116   0.8858     C
C       0.5478   0.4884   0.3858     C
C       0.5478   0.5116   0.1142     C
C       0.5478   0.9884   0.6142     C
H       0.5481   0.0496   0.0229     H
H       0.5481   0.4504   0.5229     H
H       0.5481   0.5496   0.9771     H
H       0.5481   0.9504   0.4771     H
H       0.5496   0.0229   0.9519     H
H       0.5496   0.4771   0.4519     H
H       0.5496   0.5229   0.0481     H
H       0.5496   0.9771   0.5481     H
O      0.55196  0.21782  0.06837     O
O      0.55196  0.28218  0.56837     O
O      0.55196  0.71782  0.93163     O
O      0.55196  0.78218  0.43163     O
H       0.5528     0.03    0.514     H
H       0.5528     0.47    0.014     H
H       0.5528     0.53    0.486     H
H       0.5528     0.97    0.986     H
O      0.55479  0.00613  0.84094     O
O      0.55479  0.49387  0.34094     O
O      0.55479  0.50613  0.15906     O
O      0.55479  0.99387  0.65906     O
Mo     0.55603  0.03274  0.74734    Mo
Mo     0.55603  0.46726  0.24734    Mo
Mo     0.55603  0.53274  0.25266    Mo
Mo     0.55603  0.96726  0.75266    Mo
O      0.55641  0.21363  0.14558     O
O      0.55641  0.28637  0.64558     O
O      0.55641  0.71363  0.85442     O
O      0.55641  0.78637  0.35442     O
O        0.558  0.22614   0.5708     O
O        0.558  0.27386   0.0708     O
O        0.558  0.72614   0.4292     O
O        0.558  0.77386   0.9292     O
C       0.5583   0.0174   0.9103     C
C       0.5583   0.4826   0.4103     C
C       0.5583   0.5174   0.0897     C
C       0.5583   0.9826   0.5897     C
O      0.55877  0.00275  0.77488     O
O      0.55877  0.49725  0.27488     O
O      0.55877  0.50275  0.22512     O
O      0.55877  0.99725  0.72512     O
Zn     0.55894  0.24482  0.17156    Zn
Zn     0.55894  0.25518  0.67156    Zn
Zn     0.55894  0.74482  0.82844    Zn
Zn     0.55894  0.75518  0.32844    Zn
Mo     0.56018  0.20833  0.10679    Mo
Mo     0.56018  0.29167  0.60679    Mo
Mo     0.56018  0.70833  0.89321    Mo
Mo     0.56018  0.79167  0.39321    Mo
O      0.56165  0.22433  0.64601     O
O      0.56165  0.27567  0.14601     O
O      0.56165  0.72433  0.35399     O
O      0.56165  0.77567  0.85399     O
C        0.565   0.0419   0.0191     C
C        0.565   0.4581   0.5191     C
C        0.565   0.5419   0.9809     C
C        0.565   0.9581   0.4809     C
Mo     0.56652  0.21915  0.60731    Mo
Mo     0.56652  0.28085  0.10731    Mo
Mo     0.56652  0.71915  0.39269    Mo
Mo     0.56652  0.78085  0.89269    Mo
C       0.5668   0.0093   0.8627     C
C       0.5668   0.4907   0.3627     C
C       0.5668   0.5093   0.1373     C
C       0.5668   0.9907   0.6373     C
C       0.5682   0.0137   0.0149     C
C       0.5682   0.4863   0.5149     C
C       0.5682   0.5137   0.9851     C
C       0.5682   0.9863   0.4851     C
O      0.56837  0.05196  0.71782     O
O      0.56837  0.44804  0.21782     O
O      0.56837  0.55196  0.28218     O
O      0.56837  0.94804  0.78218     O
O       0.5708    0.058  0.77386     O
O       0.5708    0.442  0.27386     O
O       0.5708    0.558  0.22614     O
O       0.5708    0.942  0.72614     O
H        0.577   0.0204   0.9116     H
H        0.577   0.4796   0.4116     H
H        0.577   0.5204   0.0884     H
H        0.577   0.9796   0.5884     H
Zn     0.57844  0.00518  0.80894    Zn
Zn     0.57844  0.49482  0.30894    Zn
Zn     0.57844  0.50518  0.19106    Zn
Zn     0.57844  0.99482  0.69106    Zn
O      0.58438  0.24306  0.10928     O
O      0.58438  0.25694  0.60928     O
O      0.58438  0.74306  0.89072     O
O      0.58438  0.75694  0.39072     O
H       0.5884    0.077   0.0204     H
H       0.5884    0.423   0.5204     H
H       0.5884    0.577   0.9796     H
H       0.5884    0.923   0.4796     H
C       0.5897   0.0583   0.0174     C
C       0.5897   0.4417   0.5174     C
C       0.5897   0.5583   0.9826     C
C       0.5897   0.9417   0.4826     C
O      0.59094  0.24387  0.19521     O
O      0.59094  0.25613  0.69521     O
O      0.59094  0.74387  0.80479     O
O      0.59094  0.75613  0.30479     O
O      0.59239  0.01026  0.86508     O
O      0.59239  0.48974  0.36508     O
O      0.59239  0.51026  0.13492     O
O      0.59239  0.98974  0.63492     O
C       0.5936   0.0035   0.0093     C
C       0.5936   0.4965   0.5093     C
C       0.5936   0.5035   0.9907     C
C       0.5936   0.9965   0.4907     C
H       0.5961   0.0153   0.4927     H
H       0.5961   0.4847   0.9927     H
H       0.5961   0.5153   0.5073     H
H       0.5961   0.9847   0.0073     H
O      0.60399  0.02567  0.68835     O
O      0.60399  0.47433  0.18835     O
O      0.60399  0.52567  0.31165     O
O      0.60399  0.97433  0.81165     O
O      0.60442  0.03637  0.80641     O
O      0.60442  0.46363  0.30641     O
O      0.60442  0.53637  0.19359     O
O      0.60442  0.96363  0.69359     O
Mo     0.60679  0.06018  0.70833    Mo
Mo     0.60679  0.43982  0.20833    Mo
Mo     0.60679  0.56018  0.29167    Mo
Mo     0.60679  0.93982  0.79167    Mo
Mo     0.60731  0.06652  0.78085    Mo
Mo     0.60731  0.43348  0.28085    Mo
Mo     0.60731  0.56652  0.21915    Mo
Mo     0.60731  0.93348  0.71915    Mo
O      0.60928  0.08438  0.74306     O
O      0.60928  0.41562  0.24306     O
O      0.60928  0.58438  0.25694     O
O      0.60928  0.91562  0.75694     O
C       0.6127   0.2407   0.1832     C
C       0.6127   0.2593   0.6832     C
C       0.6127   0.7407   0.8168     C
C       0.6127   0.7593   0.3168     C
C       0.6142   0.0478   0.0116     C
C       0.6142   0.4522   0.5116     C
C       0.6142   0.5478   0.9884     C
C       0.6142   0.9522   0.4884     C
O      0.61508  0.23974  0.15761     O
O      0.61508  0.26026  0.65761     O
O      0.61508  0.73974  0.84239     O
O      0.61508  0.76026  0.34239     O
H       0.6162   0.2495   0.2344     H
H       0.6162   0.2505   0.7344     H
H       0.6162   0.7495   0.7656     H
H       0.6162   0.7505   0.2656     H
C        0.617   0.0223   0.0063     C
C        0.617   0.4777   0.5063     C
C        0.617   0.5223   0.9937     C
C        0.617   0.9777   0.4937     C
C        0.633   0.2437   0.2277     C
C        0.633   0.2563   0.7277     C
C        0.633   0.7437   0.7723     C
C        0.633   0.7563   0.2723     C
H       0.6338   0.0156   0.0005     H
H       0.6338   0.4844   0.5005     H
H       0.6338   0.5156   0.9995     H
H       0.6338   0.9844   0.4995     H
O      0.63492  0.09239  0.01026     O
O      0.63492  0.40761  0.51026     O
O      0.63492  0.59239  0.98974     O
O      0.63492  0.90761  0.48974     O
C       0.6358   0.2384   0.2022     C
C       0.6358   0.2616   0.7022     C
C       0.6358   0.7384   0.7978     C
C       0.6358   0.7616   0.2978     C
C       0.6373   0.0668   0.0093     C
C       0.6373   0.4332   0.5093     C
C       0.6373   0.5668   0.9907     C
C       0.6373   0.9332   0.4907     C
O      0.64072  0.00694  0.83438     O
O      0.64072  0.49306  0.33438     O
O      0.64072  0.50694  0.16562     O
O      0.64072  0.99306  0.66562     O
Mo     0.64269  0.03085  0.68348    Mo
Mo     0.64269  0.46915  0.18348    Mo
Mo     0.64269  0.53085  0.31652    Mo
Mo     0.64269  0.96915  0.81652    Mo
Mo     0.64321  0.04167  0.81018    Mo
Mo     0.64321  0.45833  0.31018    Mo
Mo     0.64321  0.54167  0.18982    Mo
Mo     0.64321  0.95833  0.68982    Mo
O      0.64558  0.05641  0.71363     O
O      0.64558  0.44359  0.21363     O
O      0.64558  0.55641  0.28637     O
O      0.64558  0.94359  0.78637     O
O      0.64601  0.06165  0.77567     O
O      0.64601  0.43835  0.27567     O
O      0.64601  0.56165  0.22433     O
O      0.64601  0.93835  0.72433     O
H       0.6539   0.2427   0.2653     H
H       0.6539   0.2573   0.7653     H
H       0.6539   0.7427   0.7347     H
H       0.6539   0.7573   0.2347     H
C       0.6564   0.2407   0.2465     C
C       0.6564   0.2593   0.7465     C
C       0.6564   0.7407   0.7535     C
C       0.6564   0.7593   0.2535     C
O      0.65761  0.11508  0.73974     O
O      0.65761  0.38492  0.23974     O
O      0.65761  0.61508  0.26026     O
O      0.65761  0.88492  0.76026     O
O      0.65906  0.05479  0.00613     O
O      0.65906  0.44521  0.50613     O
O      0.65906  0.55479  0.99387     O
O      0.65906  0.94521  0.49387     O
C       0.6603   0.2326   0.1917     C
C       0.6603   0.2674   0.6917     C
C       0.6603   0.7326   0.8083     C
C       0.6603   0.7674   0.3083     C
H       0.6616   0.2296    0.173     H
H       0.6616   0.2704    0.673     H
H       0.6616   0.7296    0.827     H
H       0.6616   0.7704    0.327     H
O      0.66562  0.14072  0.00694     O
O      0.66562  0.35928  0.50694     O
O      0.66562  0.64072  0.99306     O
O      0.66562  0.85928  0.49306     O
Zn     0.67156  0.05894  0.74482    Zn
Zn     0.67156  0.44106  0.24482    Zn
Zn     0.67156  0.55894  0.25518    Zn
Zn     0.67156  0.94106  0.75518    Zn
H        0.673   0.1616   0.7296     H
H        0.673   0.3384   0.2296     H
H        0.673   0.6616   0.2704     H
H        0.673   0.8384   0.7704     H
O       0.6792  0.02386    0.692     O
O       0.6792  0.47614    0.192     O
O       0.6792  0.52386    0.308     O
O       0.6792  0.97614    0.808     O
O      0.68163  0.03218  0.80196     O
O      0.68163  0.46782  0.30196     O
O      0.68163  0.53218  0.19804     O
O      0.68163  0.96782  0.69804     O
C       0.6818   0.2351   0.2363     C
C       0.6818   0.2649   0.7363     C
C       0.6818   0.7351   0.7637     C
C       0.6818   0.7649   0.2637     C
C       0.6832   0.1127   0.7407     C
C       0.6832   0.3873   0.2407     C
C       0.6832   0.6127   0.2593     C
C       0.6832   0.8873   0.7593     C
Mo     0.68348  0.14269  0.96915    Mo
Mo     0.68348  0.35731  0.46915    Mo
Mo     0.68348  0.64269  0.03085    Mo
Mo     0.68348  0.85731  0.53085    Mo
C        0.685   0.2309   0.2081     C
C        0.685   0.2691   0.7081     C
C        0.685   0.7309   0.7919     C
C        0.685   0.7691   0.2919     C
O      0.68835  0.10399  0.97433     O
O      0.68835  0.39601  0.47433     O
O      0.68835  0.60399  0.02567     O
O      0.68835  0.89601  0.52567     O
Mo     0.68982  0.14321  0.04167    Mo
Mo     0.68982  0.35679  0.54167    Mo
Mo     0.68982  0.64321  0.95833    Mo
Mo     0.68982  0.85679  0.45833    Mo
Zn     0.69106  0.07844  0.00518    Zn
Zn     0.69106  0.42156  0.50518    Zn
Zn     0.69106  0.57844  0.99482    Zn
Zn     0.69106  0.92156  0.49482    Zn
O      0.69123  0.02488  0.74725     O
O      0.69123  0.47512  0.24725     O
O      0.69123  0.52488  0.25275     O
O      0.69123  0.97512  0.75275     O
C       0.6917   0.1603   0.7326     C
C       0.6917   0.3397   0.2326     C
C       0.6917   0.6603   0.2674     C
C       0.6917   0.8397   0.7674     C
O        0.692   0.1792  0.97614     O
O        0.692   0.3208  0.47614     O
O        0.692   0.6792  0.02386     O
O        0.692   0.8208  0.52386     O
O      0.69359  0.10442  0.03637     O
O      0.69359  0.39558  0.53637     O
O      0.69359  0.60442  0.96363     O
O      0.69359  0.89558  0.46363     O
Mo     0.69397  0.00266  0.78274    Mo
Mo     0.69397  0.49734  0.28274    Mo
Mo     0.69397  0.50266  0.21726    Mo
Mo     0.69397  0.99734  0.71726    Mo
O      0.69521  0.09094  0.74387     O
O      0.69521  0.40906  0.24387     O
O      0.69521  0.59094  0.25613     O
O      0.69521  0.90906  0.75613     O
H       0.6972    0.236     0.78     H
H       0.6972    0.264     0.28     H
H       0.6972    0.736     0.22     H
H       0.6972    0.764     0.72     H
O      0.69804  0.18163  0.03218     O
O      0.69804  0.31837  0.53218     O
O      0.69804  0.68163  0.96782     O
O      0.69804  0.81837  0.46782     O
H       0.7004   0.2019   0.7271     H
H       0.7004   0.2981   0.2271     H
H       0.7004   0.7019   0.2729     H
H       0.7004   0.7981   0.7729     H
H       0.7019   0.2271   0.2004     H
H       0.7019   0.2729   0.7004     H
H       0.7019   0.7271   0.7996     H
H       0.7019   0.7729   0.2996     H
C       0.7022   0.1358   0.7384     C
C       0.7022   0.3642   0.2384     C
C       0.7022   0.6358   0.2616     C
C       0.7022   0.8642   0.7616     C
C       0.7067   0.2322   0.2531     C
C       0.7067   0.2678   0.7531     C
C       0.7067   0.7322   0.7469     C
C       0.7067   0.7678   0.2469     C
C       0.7081    0.185   0.7309     C
C       0.7081    0.315   0.2309     C
C       0.7081    0.685   0.2691     C
C       0.7081    0.815   0.7691     C
Mo     0.70833  0.10679  0.93982    Mo
Mo     0.70833  0.39321  0.43982    Mo
Mo     0.70833  0.60679  0.06018    Mo
Mo     0.70833  0.89321  0.56018    Mo
C       0.7099   0.2497   0.7765     C
C       0.7099   0.2503   0.2765     C
C       0.7099   0.7497   0.2235     C
C       0.7099   0.7503   0.7235     C
O      0.71363  0.14558  0.94359     O
O      0.71363  0.35442  0.44359     O
O      0.71363  0.64558  0.05641     O
O      0.71363  0.85442  0.55641     O
Mo     0.71726  0.19397  0.00266    Mo
Mo     0.71726  0.30603  0.50266    Mo
Mo     0.71726  0.69397  0.99734    Mo
Mo     0.71726  0.80603  0.49734    Mo
O      0.71782  0.06837  0.94804     O
O      0.71782  0.43163  0.44804     O
O      0.71782  0.56837  0.05196     O
O      0.71782  0.93163  0.55196     O
Mo     0.71915  0.10731  0.06652    Mo
Mo     0.71915  0.39269  0.56652    Mo
Mo     0.71915  0.60731  0.93348    Mo
Mo     0.71915  0.89269  0.43348    Mo
H         0.72   0.1972    0.236     H
H         0.72   0.3028    0.736     H
H         0.72   0.6972    0.764     H
H         0.72   0.8028    0.264     H
C       0.7235   0.2099   0.2497     C
C       0.7235   0.2901   0.7497     C
C       0.7235   0.7099   0.7503     C
C       0.7235   0.7901   0.2503     C
O      0.72433  0.14601  0.06165     O
O      0.72433  0.35399  0.56165     O
O      0.72433  0.64601  0.93835     O
O      0.72433  0.85399  0.43835     O
O      0.72512  0.05877  0.00275     O
O      0.72512  0.44123  0.50275     O
O      0.72512  0.55877  0.99725     O
O      0.72512  0.94123  0.49725     O
O      0.72614   0.0708    0.058     O
O      0.72614   0.4292    0.558     O
O      0.72614   0.5708    0.942     O
O      0.72614   0.9292    0.442     O
H       0.7271   0.2004   0.7981     H
H       0.7271   0.2996   0.2981     H
H       0.7271   0.7004   0.2019     H
H       0.7271   0.7996   0.7019     H
C       0.7277    0.133   0.7437     C
C       0.7277    0.367   0.2437     C
C       0.7277    0.633   0.2563     C
C       0.7277    0.867   0.7563     C
H       0.7296    0.173   0.8384     H
H       0.7296    0.327   0.3384     H
H       0.7296    0.673   0.1616     H
H       0.7296    0.827   0.6616     H
C       0.7309   0.2081    0.815     C
C       0.7309   0.2919    0.315     C
C       0.7309   0.7081    0.185     C
C       0.7309   0.7919    0.685     C
C       0.7322   0.2469   0.2933     C
C       0.7322   0.2531   0.7933     C
C       0.7322   0.7469   0.7067     C
C       0.7322   0.7531   0.2067     C
C       0.7326   0.1917   0.8397     C
C       0.7326   0.3083   0.3397     C
C       0.7326   0.6917   0.1603     C
C       0.7326   0.8083   0.6603     C
H       0.7344   0.1162   0.7495     H
H       0.7344   0.3838   0.2495     H
H       0.7344   0.6162   0.2505     H
H       0.7344   0.8838   0.7505     H
H       0.7347   0.1539   0.2573     H
H       0.7347   0.3461   0.7573     H
H       0.7347   0.6539   0.7427     H
H       0.7347   0.8461   0.2427     H
C       0.7351   0.2363   0.8182     C
C       0.7351   0.2637   0.3182     C
C       0.7351   0.7363   0.1818     C
C       0.7351   0.7637   0.6818     C
H        0.736     0.22   0.6972     H
H        0.736     0.28   0.1972     H
H        0.736     0.72   0.3028     H
H        0.736     0.78   0.8028     H
C       0.7363   0.1818   0.7351     C
C       0.7363   0.3182   0.2351     C
C       0.7363   0.6818   0.2649     C
C       0.7363   0.8182   0.7649     C
C       0.7384   0.2022   0.8642     C
C       0.7384   0.2978   0.3642     C
C       0.7384   0.7022   0.1358     C
C       0.7384   0.7978   0.6358     C
O      0.73974  0.15761  0.88492     O
O      0.73974  0.34239  0.38492     O
O      0.73974  0.65761  0.11508     O
O      0.73974  0.84239  0.61508     O
C       0.7407   0.1832   0.8873     C
C       0.7407   0.2465   0.8436     C
C       0.7407   0.2535   0.3436     C
C       0.7407   0.3168   0.3873     C
C       0.7407   0.6832   0.1127     C
C       0.7407   0.7465   0.1564     C
C       0.7407   0.7535   0.6564     C
C       0.7407   0.8168   0.6127     C
H       0.7427   0.2347   0.3461     H
H       0.7427   0.2653   0.8461     H
H       0.7427   0.7347   0.6539     H
H       0.7427   0.7653   0.1539     H
O      0.74306  0.10928  0.91562     O
O      0.74306  0.39072  0.41562     O
O      0.74306  0.60928  0.08438     O
O      0.74306  0.89072  0.58438     O
C       0.7437   0.2277    0.867     C
C       0.7437   0.2723    0.367     C
C       0.7437   0.7277    0.133     C
C       0.7437   0.7723    0.633     C
O      0.74387  0.19521  0.90906     O
O      0.74387  0.30479  0.40906     O
O      0.74387  0.69521  0.09094     O
O      0.74387  0.80479  0.59094     O
Zn     0.74482  0.17156  0.94106    Zn
Zn     0.74482  0.32844  0.44106    Zn
Zn     0.74482  0.67156  0.05894    Zn
Zn     0.74482  0.82844  0.55894    Zn
C       0.7465   0.1564   0.7407     C
C       0.7465   0.3436   0.2407     C
C       0.7465   0.6564   0.2593     C
C       0.7465   0.8436   0.7593     C
C       0.7469   0.2067   0.2678     C
C       0.7469   0.2933   0.7678     C
C       0.7469   0.7067   0.7322     C
C       0.7469   0.7933   0.2322     C
O      0.74725  0.19123  0.97512     O
O      0.74725  0.30877  0.47512     O
O      0.74725  0.69123  0.02488     O
O      0.74725  0.80877  0.52488     O
Mo     0.74734  0.05603  0.96726    Mo
Mo     0.74734  0.44397  0.46726    Mo
Mo     0.74734  0.55603  0.03274    Mo
Mo     0.74734  0.94397  0.53274    Mo
H       0.7495   0.2344   0.8838     H
H       0.7495   0.2656   0.3838     H
H       0.7495   0.7344   0.1162     H
H       0.7495   0.7656   0.6162     H
C       0.7497   0.2235   0.7099     C
C       0.7497   0.2765   0.2099     C
C       0.7497   0.7235   0.2901     C
C       0.7497   0.7765   0.7901     C
C       0.7503   0.2235   0.2901     C
C       0.7503   0.2765   0.7901     C
C       0.7503   0.7235   0.7099     C
C       0.7503   0.7765   0.2099     C
H       0.7505   0.2344   0.1162     H
H       0.7505   0.2656   0.6162     H
H       0.7505   0.7344   0.8838     H
H       0.7505   0.7656   0.3838     H
Mo     0.75266  0.05603  0.03274    Mo
Mo     0.75266  0.44397  0.53274    Mo
Mo     0.75266  0.55603  0.96726    Mo
Mo     0.75266  0.94397  0.46726    Mo
O      0.75275  0.19123  0.02488     O
O      0.75275  0.30877  0.52488     O
O      0.75275  0.69123  0.97512     O
O      0.75275  0.80877  0.47512     O
C       0.7531   0.2067   0.7322     C
C       0.7531   0.2933   0.2322     C
C       0.7531   0.7067   0.2678     C
C       0.7531   0.7933   0.7678     C
C       0.7535   0.1564   0.2593     C
C       0.7535   0.3436   0.7593     C
C       0.7535   0.6564   0.7407     C
C       0.7535   0.8436   0.2407     C
Zn     0.75518  0.17156  0.05894    Zn
Zn     0.75518  0.32844  0.55894    Zn
Zn     0.75518  0.67156  0.94106    Zn
Zn     0.75518  0.82844  0.44106    Zn
O      0.75613  0.19521  0.09094     O
O      0.75613  0.30479  0.59094     O
O      0.75613  0.69521  0.90906     O
O      0.75613  0.80479  0.40906     O
C       0.7563   0.2277    0.133     C
C       0.7563   0.2723    0.633     C
C       0.7563   0.7277    0.867     C
C       0.7563   0.7723    0.367     C
O      0.75694  0.10928  0.08438     O
O      0.75694  0.39072  0.58438     O
O      0.75694  0.60928  0.91562     O
O      0.75694  0.89072  0.41562     O
H       0.7573   0.2347   0.6539     H
H       0.7573   0.2653   0.1539     H
H       0.7573   0.7347   0.3461     H
H       0.7573   0.7653   0.8461     H
C       0.7593   0.1832   0.1127     C
C       0.7593   0.2465   0.1564     C
C       0.7593   0.2535   0.6564     C
C       0.7593   0.3168   0.6127     C
C       0.7593   0.6832   0.8873     C
C       0.7593   0.7465   0.8436     C
C       0.7593   0.7535   0.3436     C
C       0.7593   0.8168   0.3873     C
O      0.76026  0.15761  0.11508     O
O      0.76026  0.34239  0.61508     O
O      0.76026  0.65761  0.88492     O
O      0.76026  0.84239  0.38492     O
C       0.7616   0.2022   0.1358     C
C       0.7616   0.2978   0.6358     C
C       0.7616   0.7022   0.8642     C
C       0.7616   0.7978   0.3642     C
C       0.7637   0.1818   0.2649     C
C       0.7637   0.3182   0.7649     C
C       0.7637   0.6818   0.7351     C
C       0.7637   0.8182   0.2351     C
H        0.764     0.22   0.3028     H
H        0.764     0.28   0.8028     H
H        0.764     0.72   0.6972     H
H        0.764     0.78   0.1972     H
C       0.7649   0.2363   0.1818     C
C       0.7649   0.2637   0.6818     C
C       0.7649   0.7363   0.8182     C
C       0.7649   0.7637   0.3182     C
H       0.7653   0.1539   0.7427     H
H       0.7653   0.3461   0.2427     H
H       0.7653   0.6539   0.2573     H
H       0.7653   0.8461   0.7573     H
H       0.7656   0.1162   0.2505     H
H       0.7656   0.3838   0.7505     H
H       0.7656   0.6162   0.7495     H
H       0.7656   0.8838   0.2495     H
C       0.7674   0.1917   0.1603     C
C       0.7674   0.3083   0.6603     C
C       0.7674   0.6917   0.8397     C
C       0.7674   0.8083   0.3397     C
C       0.7678   0.2469   0.7067     C
C       0.7678   0.2531   0.2067     C
C       0.7678   0.7469   0.2933     C
C       0.7678   0.7531   0.7933     C
C       0.7691   0.2081    0.185     C
C       0.7691   0.2919    0.685     C
C       0.7691   0.7081    0.815     C
C       0.7691   0.7919    0.315     C
H       0.7704    0.173   0.1616     H
H       0.7704    0.327   0.6616     H
H       0.7704    0.673   0.8384     H
H       0.7704    0.827   0.3384     H
C       0.7723    0.133   0.2563     C
C       0.7723    0.367   0.7563     C
C       0.7723    0.633   0.7437     C
C       0.7723    0.867   0.2437     C
H       0.7729   0.2004   0.2019     H
H       0.7729   0.2996   0.7019     H
H       0.7729   0.7004   0.7981     H
H       0.7729   0.7996   0.2981     H
O      0.77386   0.0708    0.942     O
O      0.77386   0.4292    0.442     O
O      0.77386   0.5708    0.058     O
O      0.77386   0.9292    0.558     O
O      0.77488  0.05877  0.99725     O
O      0.77488  0.44123  0.49725     O
O      0.77488  0.55877  0.00275     O
O      0.77488  0.94123  0.50275     O
O      0.77567  0.14601  0.93835     O
O      0.77567  0.35399  0.43835     O
O      0.77567  0.64601  0.06165     O
O      0.77567  0.85399  0.56165     O
C       0.7765   0.2099   0.7503     C
C       0.7765   0.2901   0.2503     C
C       0.7765   0.7099   0.2497     C
C       0.7765   0.7901   0.7497     C
H         0.78   0.1972    0.764     H
H         0.78   0.3028    0.264     H
H         0.78   0.6972    0.236     H
H         0.78   0.8028    0.736     H
Mo     0.78085  0.10731  0.93348    Mo
Mo     0.78085  0.39269  0.43348    Mo
Mo     0.78085  0.60731  0.06652    Mo
Mo     0.78085  0.89269  0.56652    Mo
O      0.78218  0.06837  0.05196     O
O      0.78218  0.43163  0.55196     O
O      0.78218  0.56837  0.94804     O
O      0.78218  0.93163  0.44804     O
Mo     0.78274  0.19397  0.99734    Mo
Mo     0.78274  0.30603  0.49734    Mo
Mo     0.78274  0.69397  0.00266    Mo
Mo     0.78274  0.80603  0.50266    Mo
O      0.78637  0.14558  0.05641     O
O      0.78637  0.35442  0.55641     O
O      0.78637  0.64558  0.94359     O
O      0.78637  0.85442  0.44359     O
C       0.7901   0.2497   0.2235     C
C       0.7901   0.2503   0.7235     C
C       0.7901   0.7497   0.7765     C
C       0.7901   0.7503   0.2765     C
Mo     0.79167  0.10679  0.06018    Mo
Mo     0.79167  0.39321  0.56018    Mo
Mo     0.79167  0.60679  0.93982    Mo
Mo     0.79167  0.89321  0.43982    Mo
C       0.7919    0.185   0.2691     C
C       0.7919    0.315   0.7691     C
C       0.7919    0.685   0.7309     C
C       0.7919    0.815   0.2309     C
C       0.7933   0.2322   0.7469     C
C       0.7933   0.2678   0.2469     C
C       0.7933   0.7322   0.2531     C
C       0.7933   0.7678   0.7531     C
C       0.7978   0.1358   0.2616     C
C       0.7978   0.3642   0.7616     C
C       0.7978   0.6358   0.7384     C
C       0.7978   0.8642   0.2384     C
H       0.7981   0.2271   0.7996     H
H       0.7981   0.2729   0.2996     H
H       0.7981   0.7271   0.2004     H
H       0.7981   0.7729   0.7004     H
H       0.7996   0.2019   0.2729     H
H       0.7996   0.2981   0.7729     H
H       0.7996   0.7019   0.7271     H
H       0.7996   0.7981   0.2271     H
O      0.80196  0.18163  0.96782     O
O      0.80196  0.31837  0.46782     O
O      0.80196  0.68163  0.03218     O
O      0.80196  0.81837  0.53218     O
H       0.8028    0.236     0.22     H
H       0.8028    0.264     0.72     H
H       0.8028    0.736     0.78     H
H       0.8028    0.764     0.28     H
O      0.80479  0.09094  0.25613     O
O      0.80479  0.40906  0.75613     O
O      0.80479  0.59094  0.74387     O
O      0.80479  0.90906  0.24387     O
Mo     0.80603  0.00266  0.21726    Mo
Mo     0.80603  0.49734  0.71726    Mo
Mo     0.80603  0.50266  0.78274    Mo
Mo     0.80603  0.99734  0.28274    Mo
O      0.80641  0.10442  0.96363     O
O      0.80641  0.39558  0.46363     O
O      0.80641  0.60442  0.03637     O
O      0.80641  0.89558  0.53637     O
O        0.808   0.1792  0.02386     O
O        0.808   0.3208  0.52386     O
O        0.808   0.6792  0.97614     O
O        0.808   0.8208  0.47614     O
C       0.8083   0.1603   0.2674     C
C       0.8083   0.3397   0.7674     C
C       0.8083   0.6603   0.7326     C
C       0.8083   0.8397   0.2326     C
O      0.80877  0.02488  0.25275     O
O      0.80877  0.47512  0.75275     O
O      0.80877  0.52488  0.74725     O
O      0.80877  0.97512  0.24725     O
Zn     0.80894  0.07844  0.99482    Zn
Zn     0.80894  0.42156  0.49482    Zn
Zn     0.80894  0.57844  0.00518    Zn
Zn     0.80894  0.92156  0.50518    Zn
Mo     0.81018  0.14321  0.95833    Mo
Mo     0.81018  0.35679  0.45833    Mo
Mo     0.81018  0.64321  0.04167    Mo
Mo     0.81018  0.85679  0.54167    Mo
O      0.81165  0.10399  0.02567     O
O      0.81165  0.39601  0.52567     O
O      0.81165  0.60399  0.97433     O
O      0.81165  0.89601  0.47433     O
C        0.815   0.2309   0.7919     C
C        0.815   0.2691   0.2919     C
C        0.815   0.7309   0.2081     C
C        0.815   0.7691   0.7081     C
Mo     0.81652  0.14269  0.03085    Mo
Mo     0.81652  0.35731  0.53085    Mo
Mo     0.81652  0.64269  0.96915    Mo
Mo     0.81652  0.85731  0.46915    Mo
C       0.8168   0.1127   0.2593     C
C       0.8168   0.3873   0.7593     C
C       0.8168   0.6127   0.7407     C
C       0.8168   0.8873   0.2407     C
C       0.8182   0.2351   0.7637     C
C       0.8182   0.2649   0.2637     C
C       0.8182   0.7351   0.2363     C
C       0.8182   0.7649   0.7363     C
O      0.81837  0.03218  0.19804     O
O      0.81837  0.46782  0.69804     O
O      0.81837  0.53218  0.80196     O
O      0.81837  0.96782  0.30196     O
O       0.8208  0.02386    0.308     O
O       0.8208  0.47614    0.808     O
O       0.8208  0.52386    0.692     O
O       0.8208  0.97614    0.192     O
H        0.827   0.1616   0.2704     H
H        0.827   0.3384   0.7704     H
H        0.827   0.6616   0.7296     H
H        0.827   0.8384   0.2296     H
Zn     0.82844  0.05894  0.25518    Zn
Zn     0.82844  0.44106  0.75518    Zn
Zn     0.82844  0.55894  0.74482    Zn
Zn     0.82844  0.94106  0.24482    Zn
O      0.83438  0.14072  0.99306     O
O      0.83438  0.35928  0.49306     O
O      0.83438  0.64072  0.00694     O
O      0.83438  0.85928  0.50694     O
H       0.8384   0.2296    0.827     H
H       0.8384   0.2704    0.327     H
H       0.8384   0.7296    0.173     H
H       0.8384   0.7704    0.673     H
C       0.8397   0.2326   0.8083     C
C       0.8397   0.2674   0.3083     C
C       0.8397   0.7326   0.1917     C
C       0.8397   0.7674   0.6917     C
O      0.84094  0.05479  0.99387     O
O      0.84094  0.44521  0.49387     O
O      0.84094  0.55479  0.00613     O
O      0.84094  0.94521  0.50613     O
O      0.84239  0.11508  0.26026     O
O      0.84239  0.38492  0.76026     O
O      0.84239  0.61508  0.73974     O
O      0.84239  0.88492  0.23974     O
C       0.8436   0.2407   0.7535     C
C       0.8436   0.2593   0.2535     C
C       0.8436   0.7407   0.2465     C
C       0.8436   0.7593   0.7465     C
H       0.8461   0.2427   0.7347     H
H       0.8461   0.2573   0.2347     H
H       0.8461   0.7427   0.2653     H
H       0.8461   0.7573   0.7653     H
O      0.85399  0.06165  0.22433     O
O      0.85399  0.43835  0.72433     O
O      0.85399  0.56165  0.77567     O
O      0.85399  0.93835  0.27567     O
O      0.85442  0.05641  0.28637     O
O      0.85442  0.44359  0.78637     O
O      0.85442  0.55641  0.71363     O
O      0.85442  0.94359  0.21363     O
Mo     0.85679  0.04167  0.18982    Mo
Mo     0.85679  0.45833  0.68982    Mo
Mo     0.85679  0.54167  0.81018    Mo
Mo     0.85679  0.95833  0.31018    Mo
Mo     0.85731  0.03085  0.31652    Mo
Mo     0.85731  0.46915  0.81652    Mo
Mo     0.85731  0.53085  0.68348    Mo
Mo     0.85731  0.96915  0.18348    Mo
O      0.85928  0.00694  0.16562     O
O      0.85928  0.49306  0.66562     O
O      0.85928  0.50694  0.83438     O
O      0.85928  0.99306  0.33438     O
C       0.8627   0.0668   0.9907     C
C       0.8627   0.4332   0.4907     C
C       0.8627   0.5668   0.0093     C
C       0.8627   0.9332   0.5093     C
C       0.8642   0.2384   0.7978     C
C       0.8642   0.2616   0.2978     C
C       0.8642   0.7384   0.2022     C
C       0.8642   0.7616   0.7022     C
O      0.86508  0.09239  0.98974     O
O      0.86508  0.40761  0.48974     O
O      0.86508  0.59239  0.01026     O
O      0.86508  0.90761  0.51026     O
H       0.8662   0.0156   0.9995     H
H       0.8662   0.4844   0.4995     H
H       0.8662   0.5156   0.0005     H
H       0.8662   0.9844   0.5005     H
C        0.867   0.2437   0.7723     C
C        0.867   0.2563   0.2723     C
C        0.867   0.7437   0.2277     C
C        0.867   0.7563   0.7277     C
C        0.883   0.0223   0.9937     C
C        0.883   0.4777   0.4937     C
C        0.883   0.5223   0.0063     C
C        0.883   0.9777   0.5063     C
H       0.8838   0.2495   0.7656     H
H       0.8838   0.2505   0.2656     H
H       0.8838   0.7495   0.2344     H
H       0.8838   0.7505   0.7344     H
O      0.88492  0.23974  0.84239     O
O      0.88492  0.26026  0.34239     O
O      0.88492  0.73974  0.15761     O
O      0.88492  0.76026  0.65761     O
C       0.8858   0.0478   0.9884     C
C       0.8858   0.4522   0.4884     C
C       0.8858   0.5478   0.0116     C
C       0.8858   0.9522   0.5116     C
C       0.8873   0.2407   0.8168     C
C       0.8873   0.2593   0.3168     C
C       0.8873   0.7407   0.1832     C
C       0.8873   0.7593   0.6832     C
O      0.89072  0.08438  0.25694     O
O      0.89072  0.41562  0.75694     O
O      0.89072  0.58438  0.74306     O
O      0.89072  0.91562  0.24306     O
Mo     0.89269  0.06652  0.21915    Mo
Mo     0.89269  0.43348  0.71915    Mo
Mo     0.89269  0.56652  0.78085    Mo
Mo     0.89269  0.93348  0.28085    Mo
Mo     0.89321  0.06018  0.29167    Mo
Mo     0.89321  0.43982  0.79167    Mo
Mo     0.89321  0.56018  0.70833    Mo
Mo     0.89321  0.93982  0.20833    Mo
O      0.89558  0.03637  0.19359     O
O      0.89558  0.46363  0.69359     O
O      0.89558  0.53637  0.80641     O
O      0.89558  0.96363  0.30641     O
O      0.89601  0.02567  0.31165     O
O      0.89601  0.47433  0.81165     O
O      0.89601  0.52567  0.68835     O
O      0.89601  0.97433  0.18835     O
H       0.9039   0.0153   0.5073     H
H       0.9039   0.4847   0.0073     H
H       0.9039   0.5153   0.4927     H
H       0.9039   0.9847   0.9927     H
C       0.9064   0.0035   0.9907     C
C       0.9064   0.4965   0.4907     C
C       0.9064   0.5035   0.0093     C
C       0.9064   0.9965   0.5093     C
O      0.90761  0.01026  0.13492     O
O      0.90761  0.48974  0.63492     O
O      0.90761  0.51026  0.86508     O
O      0.90761  0.98974  0.36508     O
O      0.90906  0.24387  0.80479     O
O      0.90906  0.25613  0.30479     O
O      0.90906  0.74387  0.19521     O
O      0.90906  0.75613  0.69521     O
C       0.9103   0.0583   0.9826     C
C       0.9103   0.4417   0.4826     C
C       0.9103   0.5583   0.0174     C
C       0.9103   0.9417   0.5174     C
H       0.9116    0.077   0.9796     H
H       0.9116    0.423   0.4796     H
H       0.9116    0.577   0.0204     H
H       0.9116    0.923   0.5204     H
O      0.91562  0.24306  0.89072     O
O      0.91562  0.25694  0.39072     O
O      0.91562  0.74306  0.10928     O
O      0.91562  0.75694  0.60928     O
Zn     0.92156  0.00518  0.19106    Zn
Zn     0.92156  0.49482  0.69106    Zn
Zn     0.92156  0.50518  0.80894    Zn
Zn     0.92156  0.99482  0.30894    Zn
H        0.923   0.0204   0.0884     H
H        0.923   0.4796   0.5884     H
H        0.923   0.5204   0.9116     H
H        0.923   0.9796   0.4116     H
O       0.9292    0.058  0.22614     O
O       0.9292    0.442  0.72614     O
O       0.9292    0.558  0.77386     O
O       0.9292    0.942  0.27386     O
O      0.93163  0.05196  0.28218     O
O      0.93163  0.44804  0.78218     O
O      0.93163  0.55196  0.71782     O
O      0.93163  0.94804  0.21782     O
C       0.9318   0.0137   0.9851     C
C       0.9318   0.4863   0.4851     C
C       0.9318   0.5137   0.0149     C
C       0.9318   0.9863   0.5149     C
C       0.9332   0.0093   0.1373     C
C       0.9332   0.4907   0.6373     C
C       0.9332   0.5093   0.8627     C
C       0.9332   0.9907   0.3627     C
Mo     0.93348  0.21915  0.39269    Mo
Mo     0.93348  0.28085  0.89269    Mo
Mo     0.93348  0.71915  0.60731    Mo
Mo     0.93348  0.78085  0.10731    Mo
C        0.935   0.0419   0.9809     C
C        0.935   0.4581   0.4809     C
C        0.935   0.5419   0.0191     C
C        0.935   0.9581   0.5191     C
O      0.93835  0.22433  0.35399     O
O      0.93835  0.27567  0.85399     O
O      0.93835  0.72433  0.64601     O
O      0.93835  0.77567  0.14601     O
Mo     0.93982  0.20833  0.89321    Mo
Mo     0.93982  0.29167  0.39321    Mo
Mo     0.93982  0.70833  0.10679    Mo
Mo     0.93982  0.79167  0.60679    Mo
Zn     0.94106  0.24482  0.82844    Zn
Zn     0.94106  0.25518  0.32844    Zn
Zn     0.94106  0.74482  0.17156    Zn
Zn     0.94106  0.75518  0.67156    Zn
O      0.94123  0.00275  0.22512     O
O      0.94123  0.49725  0.72512     O
O      0.94123  0.50275  0.77488     O
O      0.94123  0.99725  0.27488     O
C       0.9417   0.0174   0.0897     C
C       0.9417   0.4826   0.5897     C
C       0.9417   0.5174   0.9103     C
C       0.9417   0.9826   0.4103     C
O        0.942  0.22614   0.4292     O
O        0.942  0.27386   0.9292     O
O        0.942  0.72614   0.5708     O
O        0.942  0.77386   0.0708     O
O      0.94359  0.21363  0.85442     O
O      0.94359  0.28637  0.35442     O
O      0.94359  0.71363  0.14558     O
O      0.94359  0.78637  0.64558     O
Mo     0.94397  0.03274  0.25266    Mo
Mo     0.94397  0.46726  0.75266    Mo
Mo     0.94397  0.53274  0.74734    Mo
Mo     0.94397  0.96726  0.24734    Mo
O      0.94521  0.00613  0.15906     O
O      0.94521  0.49387  0.65906     O
O      0.94521  0.50613  0.84094     O
O      0.94521  0.99387  0.34094     O
H       0.9472     0.03    0.486     H
H       0.9472     0.47    0.986     H
H       0.9472     0.53    0.514     H
H       0.9472     0.97    0.014     H
O      0.94804  0.21782  0.93163     O
O      0.94804  0.28218  0.43163     O
O      0.94804  0.71782  0.06837     O
O      0.94804  0.78218  0.56837     O
H       0.9504   0.0229   0.0481     H
H       0.9504   0.4771   0.5481     H
H       0.9504   0.5229   0.9519     H
H       0.9504   0.9771   0.4519     H
H       0.9519   0.0496   0.9771     H
H       0.9519   0.4504   0.4771     H
H       0.9519   0.5496   0.0229     H
H       0.9519   0.9504   0.5229     H
C       0.9522   0.0116   0.1142     C
C       0.9522   0.4884   0.6142     C
C       0.9522   0.5116   0.8858     C
C       0.9522   0.9884   0.3858     C
C       0.9567   0.0031   0.5178     C
C       0.9567   0.4969   0.0178     C
C       0.9567   0.5031   0.4822     C
C       0.9567   0.9969   0.9822     C
C       0.9581   0.0191    0.065     C
C       0.9581   0.4809    0.565     C
C       0.9581   0.5191    0.935     C
C       0.9581   0.9809    0.435     C
Mo     0.95833  0.18982  0.35679    Mo
Mo     0.95833  0.31018  0.85679    Mo
Mo     0.95833  0.68982  0.64321    Mo
Mo     0.95833  0.81018  0.14321    Mo
C       0.9599   0.0265   0.4997     C
C       0.9599   0.4735   0.9997     C
C       0.9599   0.5265   0.5003     C
C       0.9599   0.9735   0.0003     C
O      0.96363  0.19359  0.39558     O
O      0.96363  0.30641  0.89558     O
O      0.96363  0.69359  0.60442     O
O      0.96363  0.80641  0.10442     O
Mo     0.96726  0.24734  0.94397    Mo
Mo     0.96726  0.25266  0.44397    Mo
Mo     0.96726  0.74734  0.05603    Mo
Mo     0.96726  0.75266  0.55603    Mo
O      0.96782  0.19804  0.31837     O
O      0.96782  0.30196  0.81837     O
O      0.96782  0.69804  0.68163     O
O      0.96782  0.80196  0.18163     O
Mo     0.96915  0.18348  0.85731    Mo
Mo     0.96915  0.31652  0.35731    Mo
Mo     0.96915  0.68348  0.14269    Mo
Mo     0.96915  0.81652  0.64269    Mo
H         0.97    0.014   0.9472     H
H         0.97    0.486   0.4472     H
H         0.97    0.514   0.0528     H
H         0.97    0.986   0.5528     H
C       0.9735   0.0003   0.9599     C
C       0.9735   0.4997   0.4599     C
C       0.9735   0.5003   0.0401     C
C       0.9735   0.9997   0.5401     C
O      0.97433  0.18835  0.89601     O
O      0.97433  0.31165  0.39601     O
O      0.97433  0.68835  0.10399     O
O      0.97433  0.81165  0.60399     O
O      0.97512  0.24725  0.80877     O
O      0.97512  0.25275  0.30877     O
O      0.97512  0.74725  0.19123     O
O      0.97512  0.75275  0.69123     O
O      0.97614    0.192   0.8208     O
O      0.97614    0.308   0.3208     O
O      0.97614    0.692   0.1792     O
O      0.97614    0.808   0.6792     O
H       0.9771   0.0481   0.4504     H
H       0.9771   0.4519   0.9504     H
H       0.9771   0.5481   0.5496     H
H       0.9771   0.9519   0.0496     H
C       0.9777   0.0063    0.117     C
C       0.9777   0.4937    0.617     C
C       0.9777   0.5063    0.883     C
C       0.9777   0.9937    0.383     C
H       0.9796   0.0884    0.423     H
H       0.9796   0.4116    0.923     H
H       0.9796   0.5884    0.577     H
H       0.9796   0.9116    0.077     H
C       0.9809    0.065   0.4581     C
C       0.9809    0.435   0.9581     C
C       0.9809    0.565   0.5419     C
C       0.9809    0.935   0.0419     C
C       0.9822   0.0433   0.5031     C
C       0.9822   0.4567   0.0031     C
C       0.9822   0.5433   0.4969     C
C       0.9822   0.9567   0.9969     C
C       0.9826   0.0897   0.4417     C
C       0.9826   0.4103   0.9417     C
C       0.9826   0.5897   0.5583     C
C       0.9826   0.9103   0.0583     C
H       0.9844   0.0005   0.1338     H
H       0.9844   0.4995   0.6338     H
H       0.9844   0.5005   0.8662     H
H       0.9844   0.9995   0.3662     H
H       0.9847   0.0073   0.5961     H
H       0.9847   0.4927   0.0961     H
H       0.9847   0.5073   0.4039     H
H       0.9847   0.9927   0.9039     H
C       0.9851   0.0682   0.4863     C
C       0.9851   0.4318   0.9863     C
C       0.9851   0.5682   0.5137     C
C       0.9851   0.9318   0.0137     C
H        0.986   0.0528     0.03     H
H        0.986   0.4472     0.53     H
H        0.986   0.5528     0.97     H
H        0.986   0.9472     0.47     H
C       0.9863   0.0149   0.0682     C
C       0.9863   0.4851   0.5682     C
C       0.9863   0.5149   0.9318     C
C       0.9863   0.9851   0.4318     C
C       0.9884   0.1142   0.4522     C
C       0.9884   0.3858   0.9522     C
C       0.9884   0.6142   0.5478     C
C       0.9884   0.8858   0.0478     C
O      0.98974  0.13492  0.40761     O
O      0.98974  0.36508  0.90761     O
O      0.98974  0.63492  0.59239     O
O      0.98974  0.86508  0.09239     O
C       0.9907   0.0936   0.4965     C
C       0.9907   0.1373   0.4332     C
C       0.9907   0.3627   0.9332     C
C       0.9907   0.4064   0.9965     C
C       0.9907   0.5936   0.5035     C
C       0.9907   0.6373   0.5668     C
C       0.9907   0.8627   0.0668     C
C       0.9907   0.9064   0.0035     C
H       0.9927   0.0961   0.5153     H
H       0.9927   0.4039   0.0153     H
H       0.9927   0.5961   0.4847     H
H       0.9927   0.9039   0.9847     H
O      0.99306  0.16562  0.35928     O
O      0.99306  0.33438  0.85928     O
O      0.99306  0.66562  0.64072     O
O      0.99306  0.83438  0.14072     O
C       0.9937    0.117   0.4777     C
C       0.9937    0.383   0.9777     C
C       0.9937    0.617   0.5223     C
C       0.9937    0.883   0.0223     C
O      0.99387  0.15906  0.44521     O
O      0.99387  0.34094  0.94521     O
O      0.99387  0.65906  0.55479     O
O      0.99387  0.84094  0.05479     O
Zn     0.99482  0.19106  0.42156    Zn
Zn     0.99482  0.30894  0.92156    Zn
Zn     0.99482  0.69106  0.57844    Zn
Zn     0.99482  0.80894  0.07844    Zn
C       0.9965   0.0093   0.0936     C
C       0.9965   0.4907   0.5936     C
C       0.9965   0.5093   0.9064     C
C       0.9965   0.9907   0.4064     C
C       0.9969   0.0178   0.5433     C
C       0.9969   0.4822   0.0433     C
C       0.9969   0.5178   0.4567     C
C       0.9969   0.9822   0.9567     C
O      0.99725  0.22512  0.44123     O
O      0.99725  0.27488  0.94123     O
O      0.99725  0.72512  0.55877     O
O      0.99725  0.77488  0.05877     O
Mo     0.99734  0.21726  0.30603    Mo
Mo     0.99734  0.28274  0.80603    Mo
Mo     0.99734  0.71726  0.69397    Mo
Mo     0.99734  0.78274  0.19397    Mo
H       0.9995   0.1338   0.4844     H
H       0.9995   0.3662   0.9844     H
H       0.9995   0.6338   0.5156     H
H       0.9995   0.8662   0.0156     H
C       0.9997   0.0401   0.0265     C
C       0.9997   0.4599   0.5265     C
C       0.9997   0.5401   0.9735     C
C       0.9997   0.9599   0.4735     C
