data_I
_chemical_name_common  '/home/zhangsd/repos/MofS-CGCNN/ML/data/WS24/clean_cifs/ONUQOE'
_cell_length_a 12.23600
_cell_length_b 27.17900
_cell_length_c 12.46700
_cell_angle_alpha 90.00000
_cell_angle_beta  109.75400
_cell_angle_gamma 90.00000
_space_group_name_H-M_alt      'P 1'


loop_
_space_group_symop_operation_xyz
  'x, y, z' 

loop_
_atom_site_label
_atom_site_fract_x
_atom_site_fract_y
_atom_site_fract_z
_atom_site_type_symbol
Cd         0.0      0.0      0.0    Cd
H       0.0066   0.0905   0.4836     H
S       0.0067  0.54436   0.6299     S
C       0.0078   0.3507   0.6938     C
C       0.0149   0.3588   0.1362     C
H       0.0152      0.4   0.5751     H
C       0.0158   0.5089   0.1887     C
C       0.0164   0.2796   0.2161     C
O       0.0253   0.9971   0.8235     O
C       0.0323   0.6126   0.3869     C
H       0.0373   0.6917   0.1975     H
H       0.0375   0.5462   0.0601     H
H       0.0385   0.3915   0.1417     H
H       0.0386   0.9643   0.3999     H
C       0.0388    0.043   0.6116     C
H        0.042   0.2588   0.2789     H
C       0.0518   0.3292   0.2295     C
C       0.0544   0.7395   0.8861     C
C        0.057   0.6594   0.9663     C
H       0.0622    0.483   0.8287     H
C       0.0641    0.667   0.2515     C
C       0.0658   0.0757   0.5424     C
C       0.0709   0.4789   0.2831     C
C       0.0753   0.5264   0.1225     C
H       0.0825   0.3382   0.7107     H
C       0.0825   0.7936   0.8962     C
H       0.0828   0.6383   0.0286     H
O       0.0889   0.8144   0.9857     O
O       0.0895   0.8156   0.8105     O
C       0.0926   0.7085   0.9798     C
C       0.0935   0.9838   0.7751     C
Cd     0.09593  0.89127  0.90083    Cd
O       0.0977   0.1078    0.161     O
H       0.0987   0.3413   0.2998     H
C       0.1259   0.0202   0.6997     C
O       0.1347   0.9391   0.0592     O
O       0.1361   0.0569   0.0362     O
O       0.1368   0.9416   0.7824     O
C       0.1437   0.5949   0.4103     C
S       0.1514  0.50155    0.667     S
H       0.1572   0.5731   0.8448     H
C       0.1624   0.0904   0.1112     C
H       0.1691     0.57   0.4642     H
H       0.1779    0.979   0.2447     H
C       0.1783   0.6486   0.2747     C
C       0.1789   0.0872   0.5582     C
S        0.185  0.73171   0.1135     S
C       0.1865   0.4669   0.3057     C
C       0.1911   0.5152   0.1462     C
H       0.1968   0.1098   0.5106     H
O       0.2032   0.4104    0.456     O
C       0.2194   0.6121   0.3583     C
S       0.2284  0.17201    0.297     S
H       0.2319   0.5272   0.1009     H
C       0.2341   0.5651   0.8553     C
C       0.2421   0.0309   0.7175     C
C       0.2436   0.4862   0.2378     C
C       0.2452   0.9368   0.0924     C
C       0.2548   0.4368   0.4076     C
C       0.2564   0.9862   0.2622     C
C       0.2579   0.5309   0.7825     C
C       0.2659   0.0651   0.6447     C
H       0.2681   0.0272   0.3991     H
S       0.2716  0.67201    0.203     S
C       0.2806   0.1121   0.1417     C
O       0.2968   0.9104    0.044     O
H       0.3032   0.6098   0.9894     H
C       0.3089   0.0152   0.3538     C
C       0.3135   0.9669   0.1943     C
S        0.315  0.23171   0.3865     S
C       0.3211   0.5872   0.9418     C
C       0.3217   0.1486   0.2253     C
H       0.3221    0.479   0.2553     H
H       0.3309     0.07   0.0358     H
C       0.3376   0.5904   0.3888     C
H       0.3428   0.0731   0.6552     H
S       0.3486  0.00155    0.833     S
C       0.3563   0.0949   0.0897     C
O       0.3632   0.4416   0.7176     O
O       0.3639   0.5569   0.4638     O
O       0.3653   0.4391   0.4408     O
C       0.3741   0.5202   0.8003     C
H       0.4013   0.8413   0.2002     H
O       0.4023   0.6078    0.339     O
Cd     0.40407  0.39127  0.59917    Cd
C       0.4065   0.4838   0.7249     C
C       0.4074   0.2085   0.5202     C
O       0.4105   0.3156   0.6895     O
O       0.4111   0.3144   0.5143     O
H       0.4172   0.1383   0.4714     H
C       0.4175   0.2936   0.6038     C
H       0.4175   0.8382   0.7893     H
C       0.4247   0.0264   0.3775     C
C       0.4291   0.9789   0.2169     C
C       0.4342   0.5757   0.9576     C
C       0.4359    0.167   0.2485     C
H       0.4378    0.983   0.6713     H
C        0.443   0.1594   0.5337     C
C       0.4456   0.2395   0.6139     C
C       0.4482   0.8292   0.2705     C
H        0.458   0.7588   0.2211     H
C       0.4612    0.543   0.8884     C
H       0.4614   0.4643   0.1001     H
H       0.4615   0.8915   0.3583     H
H       0.4625   0.0462   0.4399     H
H       0.4627   0.1917   0.3025     H
C       0.4677   0.1126   0.1131     C
O       0.4747   0.4971   0.6765     O
C       0.4836   0.7796   0.2839     C
C       0.4842   0.0089   0.3113     C
H       0.4848      0.9   0.9249     H
C       0.4851   0.8588   0.3638     C
C       0.4922   0.8507   0.8062     C
S       0.4933  0.04436   0.8701     S
H       0.4934   0.5905   0.0164     H
Cd         0.5      0.5      0.5    Cd
H       0.5066   0.4095   0.9836     H
S       0.5067  0.95564   0.1299     S
C       0.5078   0.1493   0.1938     C
C       0.5149   0.1412   0.6362     C
H       0.5152      0.1   0.0751     H
C       0.5158   0.9911   0.6887     C
C       0.5164   0.2204   0.7161     C
O       0.5253   0.5029   0.3235     O
C       0.5323   0.8874   0.8869     C
H       0.5373   0.8083   0.6975     H
H       0.5375   0.9538   0.5601     H
H       0.5385   0.1085   0.6417     H
H       0.5386   0.5357   0.8999     H
C       0.5388    0.457   0.1116     C
H        0.542   0.2412   0.7789     H
C       0.5518   0.1708   0.7295     C
C       0.5544   0.7605   0.3861     C
C        0.557   0.8406   0.4663     C
H       0.5622    0.017   0.3287     H
C       0.5641    0.833   0.7515     C
C       0.5658   0.4243   0.0424     C
C       0.5709   0.0211   0.7831     C
C       0.5753   0.9736   0.6225     C
H       0.5825   0.1618   0.2107     H
C       0.5825   0.7064   0.3962     C
H       0.5828   0.8617   0.5286     H
O       0.5889   0.6856   0.4857     O
O       0.5895   0.6844   0.3105     O
C       0.5926   0.7915   0.4798     C
C       0.5935   0.5162   0.2751     C
Cd     0.59593  0.60873  0.40083    Cd
O       0.5977   0.3922    0.661     O
H       0.5987   0.1587   0.7998     H
C       0.6259   0.4798   0.1997     C
O       0.6347   0.5609   0.5592     O
O       0.6361   0.4431   0.5362     O
O       0.6368   0.5584   0.2824     O
C       0.6437   0.9051   0.9103     C
S       0.6514  0.99845    0.167     S
H       0.6572   0.9269   0.3448     H
C       0.6624   0.4096   0.6112     C
H       0.6691     0.93   0.9642     H
H       0.6779    0.521   0.7447     H
C       0.6783   0.8514   0.7747     C
C       0.6789   0.4128   0.0582     C
S        0.685  0.76829   0.6135     S
C       0.6865   0.0331   0.8057     C
C       0.6911   0.9848   0.6462     C
H       0.6968   0.3902   0.0106     H
O       0.7032   0.0896    0.956     O
C       0.7194   0.8879   0.8583     C
S       0.7284  0.32799    0.797     S
H       0.7319   0.9728   0.6009     H
C       0.7341   0.9349   0.3553     C
C       0.7421   0.4691   0.2175     C
C       0.7436   0.0138   0.7378     C
C       0.7452   0.5632   0.5924     C
C       0.7548   0.0632   0.9076     C
C       0.7564   0.5138   0.7622     C
C       0.7579   0.9691   0.2825     C
C       0.7659   0.4349   0.1447     C
H       0.7681   0.4728   0.8991     H
S       0.7716  0.82799    0.703     S
C       0.7806   0.3879   0.6417     C
O       0.7968   0.5896    0.544     O
H       0.8032   0.8902   0.4894     H
C       0.8089   0.4848   0.8538     C
C       0.8135   0.5331   0.6943     C
S        0.815  0.26829   0.8865     S
C       0.8211   0.9128   0.4418     C
C       0.8217   0.3514   0.7253     C
H       0.8221    0.021   0.7553     H
H       0.8309     0.43   0.5358     H
C       0.8376   0.9096   0.8888     C
H       0.8428   0.4269   0.1552     H
S       0.8486  0.49845    0.333     S
C       0.8563   0.4051   0.5897     C
O       0.8632   0.0584   0.2176     O
O       0.8639   0.9431   0.9638     O
O       0.8653   0.0609   0.9408     O
C       0.8741   0.9798   0.3003     C
H       0.9013   0.6587   0.7002     H
O       0.9023   0.8922    0.839     O
Cd     0.90407  0.10873  0.09917    Cd
C       0.9065   0.0162   0.2249     C
C       0.9074   0.2915   0.0202     C
O       0.9105   0.1844   0.1895     O
O       0.9111   0.1856   0.0143     O
H       0.9172   0.3617   0.9714     H
C       0.9175   0.2064   0.1038     C
H       0.9175   0.6618   0.2893     H
C       0.9247   0.4736   0.8775     C
C       0.9291   0.5211   0.7169     C
C       0.9342   0.9243   0.4576     C
C       0.9359    0.333   0.7485     C
H       0.9378    0.517   0.1713     H
C        0.943   0.3406   0.0337     C
C       0.9456   0.2605   0.1139     C
C       0.9482   0.6708   0.7705     C
H        0.958   0.7412   0.7211     H
C       0.9612    0.957   0.3884     C
H       0.9614   0.0357   0.6001     H
H       0.9615   0.6085   0.8583     H
H       0.9625   0.4538   0.9399     H
H       0.9627   0.3083   0.8025     H
C       0.9677   0.3874   0.6131     C
O       0.9747   0.0029   0.1765     O
C       0.9836   0.7204   0.7839     C
C       0.9842   0.4911   0.8113     C
H       0.9848      0.6   0.4249     H
C       0.9851   0.6412   0.8638     C
C       0.9922   0.6493   0.3062     C
S       0.9933  0.45564   0.3701     S
H       0.9934   0.9095   0.5164     H
