data_I
_chemical_name_common  '/home/zhangsd/repos/MofS-CGCNN/ML/data/WS24/clean_cifs/OSAVEK'
_cell_length_a  6.72990
_cell_length_b 10.93750
_cell_length_c 18.58400
_cell_angle_alpha 90.00000
_cell_angle_beta  90.00000
_cell_angle_gamma 90.00000
_space_group_name_H-M_alt      'P 1'


loop_
_space_group_symop_operation_xyz
  'x, y, z' 

loop_
_atom_site_label
_atom_site_fract_x
_atom_site_fract_y
_atom_site_fract_z
_atom_site_type_symbol
H       0.0437   0.2562   0.2178     H
H       0.0437   0.7562   0.2822     H
H       0.0463    0.185   0.3341     H
H       0.0463    0.685   0.1659     H
C       0.0743   0.3023   0.8108     C
C       0.0743   0.8023   0.6892     C
C        0.076   0.2586   0.7413     C
C        0.076   0.7586   0.7587     C
O       0.0877   0.4098  0.94891     O
O       0.0877   0.9098  0.55109     O
O       0.0881   0.1784  0.59707     O
O       0.0881   0.6784  0.90293     O
Ca        0.25  0.09047  0.48652    Ca
C         0.25   0.1937   0.6286     C
C         0.25   0.2366   0.7063     C
C         0.25   0.3274   0.8464     C
C         0.25   0.3831   0.9193     C
Ca        0.25  0.59047  0.01348    Ca
C         0.25   0.6937   0.8714     C
C         0.25   0.7366   0.7937     C
C         0.25   0.8274   0.6536     C
C         0.25   0.8831   0.5807     C
O       0.4119   0.1784  0.59707     O
O       0.4119   0.6784  0.90293     O
O       0.4123   0.4098  0.94891     O
O       0.4123   0.9098  0.55109     O
C        0.424   0.2586   0.7413     C
C        0.424   0.7586   0.7587     C
C       0.4257   0.3023   0.8108     C
C       0.4257   0.8023   0.6892     C
H       0.4537    0.185   0.3341     H
H       0.4537    0.685   0.1659     H
H       0.4563   0.2562   0.2178     H
H       0.4563   0.7562   0.2822     H
H       0.5437   0.2438   0.7178     H
H       0.5437   0.7438   0.7822     H
H       0.5463    0.315   0.8341     H
H       0.5463    0.815   0.6659     H
C       0.5743   0.1977   0.3108     C
C       0.5743   0.6977   0.1892     C
C        0.576   0.2414   0.2413     C
C        0.576   0.7414   0.2587     C
O       0.5877   0.0902  0.44891     O
O       0.5877   0.5902  0.05109     O
O       0.5881   0.3216  0.09707     O
O       0.5881   0.8216  0.40293     O
C         0.75   0.1169   0.4193     C
C         0.75   0.1726   0.3464     C
C         0.75   0.2634   0.2063     C
C         0.75   0.3063   0.1286     C
Ca        0.75  0.40953  0.98652    Ca
C         0.75   0.6169   0.0807     C
C         0.75   0.6726   0.1536     C
C         0.75   0.7634   0.2937     C
C         0.75   0.8063   0.3714     C
Ca        0.75  0.90953  0.51348    Ca
O       0.9119   0.3216  0.09707     O
O       0.9119   0.8216  0.40293     O
O       0.9123   0.0902  0.44891     O
O       0.9123   0.5902  0.05109     O
C        0.924   0.2414   0.2413     C
C        0.924   0.7414   0.2587     C
C       0.9257   0.1977   0.3108     C
C       0.9257   0.6977   0.1892     C
H       0.9537    0.315   0.8341     H
H       0.9537    0.815   0.6659     H
H       0.9563   0.2438   0.7178     H
H       0.9563   0.7438   0.7822     H
