data_I
_chemical_name_common  '/home/zhangsd/repos/MofS-CGCNN/ML/data/WS24/clean_cifs/OVIDON'
_cell_length_a 12.96490
_cell_length_b 16.24390
_cell_length_c 22.57360
_cell_angle_alpha 106.40400
_cell_angle_beta  90.00000
_cell_angle_gamma 90.00000
_space_group_name_H-M_alt      'P 1'


loop_
_space_group_symop_operation_xyz
  'x, y, z' 

loop_
_atom_site_label
_atom_site_fract_x
_atom_site_fract_y
_atom_site_fract_z
_atom_site_type_symbol
C       0.0014   0.7551  0.06337     C
H       0.0015   0.1037   0.3627     H
H       0.0044   0.9573   0.3436     H
H       0.0049    0.656   0.1003     H
C       0.0101   0.8717  0.79406     C
O       0.0106  0.22255  0.60489     O
C       0.0109   0.7153  0.10944     C
H       0.0115   0.2764   0.9772     H
C       0.0117   0.8432  0.07942     C
S      0.01233  0.90784  0.02724     S
H       0.0125   0.6269   0.4839     H
H       0.0153   0.7547   0.5652     H
S      0.02084  0.82275  0.94177     S
N       0.0237  0.89222   0.1372     N
C        0.025   0.7839  0.78241     C
C       0.0294   0.7641   0.1696     C
C       0.0296   0.5359  0.63061     C
C       0.0327   0.8521  0.18043     C
C       0.0356   0.5797  0.58679     C
H       0.0392   0.2309    0.493     H
H       0.0419   0.8855    0.221     H
C       0.0457   0.2591  0.46058     C
C       0.0483   0.3562  0.49046     C
H       0.0505   0.3271   0.2459     H
C       0.0516   0.4054  0.44343     C
C       0.0516   0.7262  0.22167     C
O       0.0579   0.7796  0.27369     O
C       0.0584   0.0773  0.37458     C
C        0.059   0.2683  0.23877     C
N       0.0597  0.49347  0.35332     N
O       0.0599  0.64845   0.2115     O
C        0.061    0.989  0.36285     C
H       0.0644   0.9092   0.8089     H
Cd      0.0654    0.579  0.28649    Cd
O       0.0692   0.3483   0.6623     O
C         0.08   0.2738  0.62729     C
C       0.0842   0.0967  0.21615     C
H       0.0899   0.5261   0.6499     H
H        0.095    0.038   0.2084     H
H       0.0991   0.5996   0.5775     H
H       0.1084   0.3706   0.5169     H
C       0.1118   0.2015  0.07665     C
C       0.1271   0.7495  0.79613     C
O       0.1336  0.67117  0.79342     O
N       0.1364    0.284   0.0917     N
H       0.1381   0.2413   0.3844     H
C       0.1389   0.2228   0.4217     C
N       0.1407  0.94734  0.37779     N
C       0.1414   0.1268   0.4044     C
C       0.1434   0.4365  0.42712     C
C       0.1441   0.4796  0.38263     C
Cd     0.14739  0.80198  0.36003    Cd
N       0.1518  0.23995  0.24972     N
H       0.1615   0.0808   0.0672     H
C       0.1625   0.1549  0.23833     C
H       0.1682   0.1187   0.5909     H
C       0.1819    0.138  0.07697     C
C       0.1897   0.2463  0.60875     C
O       0.1929  0.65831  0.35377     O
H        0.199   0.6685   0.3913     H
O       0.1997  0.80225  0.80925     O
H        0.201   0.2453   0.4445     H
H       0.2046   0.4284   0.4462     H
H       0.2068   0.5001   0.3725     H
H       0.2083   0.9513   0.5428     H
S      0.20889  0.12691  0.75249     S
O         0.21  0.70635  0.47763     O
N        0.211  0.97723   0.6325     N
C       0.2114   0.9257  0.57475     C
C       0.2141   0.7866  0.49191     C
C       0.2146   0.9391  0.67731     C
C        0.216   0.8372  0.55904     C
C       0.2174   0.1607  0.59198     C
H       0.2177    0.112    0.937     H
O       0.2178  0.83074  0.45448     O
S      0.21867  0.00378  0.75579     S
C       0.2187   0.8508  0.66736     C
C         0.22   0.7997  0.60724     C
H       0.2205   0.8269   0.7003     H
H       0.2211   0.9665   0.9151     H
C       0.2219   0.9945  0.40497     C
H       0.2236   0.7403   0.5989     H
C       0.2242   0.0822   0.4183     C
C       0.2338   0.3052  0.10855     C
H        0.249   0.3631   0.6209     H
H       0.2494   0.6544   0.3369     H
H       0.2506   0.6544   0.8369     H
H        0.251   0.3631   0.1209     H
C       0.2662   0.3052  0.60855     C
C       0.2758   0.0822   0.9183     C
H       0.2764   0.7403   0.0989     H
C       0.2781   0.9945  0.90497     C
H       0.2789   0.9665   0.4151     H
H       0.2795   0.8269   0.2003     H
C         0.28   0.7997  0.10724     C
C       0.2813   0.8508  0.16736     C
S      0.28133  0.00378  0.25579     S
O       0.2822  0.83074  0.95448     O
H       0.2823    0.112    0.437     H
C       0.2826   0.1607  0.09198     C
C        0.284   0.8372  0.05904     C
C       0.2854   0.9391  0.17731     C
C       0.2859   0.7866  0.99191     C
C       0.2886   0.9257  0.07475     C
N        0.289  0.97723   0.1325     N
O         0.29  0.70635  0.97763     O
S      0.29111  0.12691  0.25249     S
H       0.2917   0.9513   0.0428     H
H       0.2932   0.5001   0.8725     H
H       0.2954   0.4284   0.9462     H
H        0.299   0.2453   0.9445     H
O       0.3003  0.80225  0.30925     O
H        0.301   0.6685   0.8913     H
O       0.3071  0.65831  0.85377     O
C       0.3103   0.2463  0.10875     C
C       0.3181    0.138  0.57697     C
H       0.3318   0.1187   0.0909     H
C       0.3375   0.1549  0.73833     C
H       0.3385   0.0808   0.5672     H
N       0.3482  0.23995  0.74972     N
Cd     0.35261  0.80198  0.86003    Cd
C       0.3559   0.4796  0.88263     C
C       0.3566   0.4365  0.92712     C
C       0.3586   0.1268   0.9044     C
N       0.3593  0.94734  0.87779     N
C       0.3611   0.2228   0.9217     C
H       0.3619   0.2413   0.8844     H
N       0.3636    0.284   0.5917     N
O       0.3664  0.67117  0.29342     O
C       0.3729   0.7495  0.29613     C
C       0.3882   0.2015  0.57665     C
H       0.3916   0.3706   0.0169     H
H       0.4009   0.5996   0.0775     H
H        0.405    0.038   0.7084     H
H       0.4101   0.5261   0.1499     H
C       0.4158   0.0967  0.71615     C
C         0.42   0.2738  0.12729     C
O       0.4308   0.3483   0.1623     O
Cd      0.4346    0.579  0.78649    Cd
H       0.4356   0.9092   0.3089     H
C        0.439    0.989  0.86285     C
O       0.4401  0.64845   0.7115     O
N       0.4403  0.49347  0.85332     N
C        0.441   0.2683  0.73877     C
C       0.4416   0.0773  0.87458     C
O       0.4421   0.7796  0.77369     O
C       0.4484   0.4054  0.94343     C
C       0.4484   0.7262  0.72167     C
H       0.4495   0.3271   0.7459     H
C       0.4517   0.3562  0.99046     C
C       0.4543   0.2591  0.96058     C
H       0.4581   0.8855    0.721     H
H       0.4608   0.2309    0.993     H
C       0.4644   0.5797  0.08679     C
C       0.4673   0.8521  0.68043     C
C       0.4704   0.5359  0.13061     C
C       0.4706   0.7641   0.6696     C
C        0.475   0.7839  0.28241     C
N       0.4763  0.89222   0.6372     N
S      0.47916  0.82275  0.44177     S
H       0.4847   0.7547   0.0652     H
H       0.4875   0.6269   0.9839     H
S      0.48767  0.90784  0.52724     S
C       0.4883   0.8432  0.57942     C
H       0.4885   0.2764   0.4772     H
C       0.4891   0.7153  0.60944     C
O       0.4894  0.22255  0.10489     O
C       0.4899   0.8717  0.29406     C
H       0.4951    0.656   0.6003     H
H       0.4956   0.9573   0.8436     H
H       0.4985   0.1037   0.8627     H
C       0.4986   0.7551  0.56337     C
C       0.5014   0.2449  0.43663     C
H       0.5015   0.8963   0.1373     H
H       0.5044   0.0427   0.1564     H
H       0.5049    0.344   0.3997     H
C       0.5101   0.1283  0.70594     C
O       0.5106  0.77745  0.89511     O
C       0.5109   0.2847  0.39056     C
H       0.5115   0.7236   0.5228     H
C       0.5117   0.1568  0.42058     C
S      0.51233  0.09216  0.47276     S
H       0.5125   0.3731   0.0161     H
H       0.5153   0.2453   0.9348     H
S      0.52084  0.17725  0.55823     S
N       0.5237  0.10778   0.3628     N
C        0.525   0.2161  0.71759     C
C       0.5294   0.2359   0.3304     C
C       0.5296   0.4641  0.86939     C
C       0.5327   0.1479  0.31957     C
C       0.5356   0.4203  0.91321     C
H       0.5392   0.7691    0.007     H
H       0.5419   0.1145    0.279     H
C       0.5457   0.7409  0.03942     C
C       0.5483   0.6438  0.00954     C
H       0.5505   0.6729   0.2541     H
C       0.5516   0.2738  0.27833     C
C       0.5516   0.5946  0.05657     C
O       0.5579   0.2204  0.22631     O
C       0.5584   0.9227  0.12542     C
C        0.559   0.7317  0.26123     C
N       0.5597  0.50653  0.14668     N
O       0.5599  0.35155   0.2885     O
C        0.561    0.011  0.13715     C
H       0.5644   0.0908   0.6911     H
Cd      0.5654    0.421  0.21351    Cd
O       0.5692   0.6517   0.8377     O
C         0.58   0.7262  0.87271     C
C       0.5842   0.9033  0.28385     C
H       0.5899   0.4739   0.8501     H
H        0.595    0.962   0.2916     H
H       0.5991   0.4004   0.9225     H
H       0.6084   0.6294   0.9831     H
C       0.6118   0.7985  0.42335     C
C       0.6271   0.2505  0.70387     C
O       0.6336  0.32883  0.70658     O
N       0.6364    0.716   0.4083     N
H       0.6381   0.7587   0.1156     H
C       0.6389   0.7772   0.0783     C
N       0.6407  0.05266  0.12221     N
C       0.6414   0.8732   0.0956     C
C       0.6434   0.5635  0.07288     C
C       0.6441   0.5204  0.11737     C
Cd     0.64739  0.19802  0.13997    Cd
N       0.6518  0.76005  0.25028     N
H       0.6615   0.9192   0.4328     H
C       0.6625   0.8451  0.26167     C
H       0.6682   0.8813   0.9091     H
C       0.6819    0.862  0.42303     C
C       0.6897   0.7537  0.89125     C
O       0.6929  0.34169  0.14623     O
H        0.699   0.3315   0.1087     H
O       0.6997  0.19775  0.69075     O
H        0.701   0.7547   0.0555     H
H       0.7046   0.5716   0.0538     H
H       0.7068   0.4999   0.1275     H
H       0.7083   0.0487   0.9572     H
S      0.70889  0.87309  0.74751     S
O         0.71  0.29365  0.02237     O
N        0.711  0.02277   0.8675     N
C       0.7114   0.0743  0.92525     C
C       0.7141   0.2134  0.00809     C
C       0.7146   0.0609  0.82269     C
C        0.716   0.1628  0.94096     C
C       0.7174   0.8393  0.90802     C
H       0.7177    0.888    0.563     H
O       0.7178  0.16926  0.04552     O
S      0.71867  0.99622  0.74421     S
C       0.7187   0.1492  0.83264     C
C         0.72   0.2003  0.89276     C
H       0.7205   0.1731   0.7997     H
H       0.7211   0.0335   0.5849     H
C       0.7219   0.0055  0.09503     C
H       0.7236   0.2597   0.9011     H
C       0.7242   0.9178   0.0817     C
C       0.7338   0.6948  0.39145     C
H        0.749   0.6369   0.8791     H
H       0.7494   0.3456   0.1631     H
H       0.7506   0.3456   0.6631     H
H        0.751   0.6369   0.3791     H
C       0.7662   0.6948  0.89145     C
C       0.7758   0.9178   0.5817     C
H       0.7764   0.2597   0.4011     H
C       0.7781   0.0055  0.59503     C
H       0.7789   0.0335   0.0849     H
H       0.7795   0.1731   0.2997     H
C         0.78   0.2003  0.39276     C
C       0.7813   0.1492  0.33264     C
S      0.78133  0.99622  0.24421     S
O       0.7822  0.16926  0.54552     O
H       0.7823    0.888    0.063     H
C       0.7826   0.8393  0.40802     C
C        0.784   0.1628  0.44096     C
C       0.7854   0.0609  0.32269     C
C       0.7859   0.2134  0.50809     C
C       0.7886   0.0743  0.42525     C
N        0.789  0.02277   0.3675     N
O         0.79  0.29365  0.52237     O
S      0.79111  0.87309  0.24751     S
H       0.7917   0.0487   0.4572     H
H       0.7932   0.4999   0.6275     H
H       0.7954   0.5716   0.5538     H
H        0.799   0.7547   0.5555     H
O       0.8003  0.19775  0.19075     O
H        0.801   0.3315   0.6087     H
O       0.8071  0.34169  0.64623     O
C       0.8103   0.7537  0.39125     C
C       0.8181    0.862  0.92303     C
H       0.8318   0.8813   0.4091     H
C       0.8375   0.8451  0.76167     C
H       0.8385   0.9192   0.9328     H
N       0.8482  0.76005  0.75028     N
Cd     0.85261  0.19802  0.63997    Cd
C       0.8559   0.5204  0.61737     C
C       0.8566   0.5635  0.57288     C
C       0.8586   0.8732   0.5956     C
N       0.8593  0.05266  0.62221     N
C       0.8611   0.7772   0.5783     C
H       0.8619   0.7587   0.6156     H
N       0.8636    0.716   0.9083     N
O       0.8664  0.32883  0.20658     O
C       0.8729   0.2505  0.20387     C
C       0.8882   0.7985  0.92335     C
H       0.8916   0.6294   0.4831     H
H       0.9009   0.4004   0.4225     H
H        0.905    0.962   0.7916     H
H       0.9101   0.4739   0.3501     H
C       0.9158   0.9033  0.78385     C
C         0.92   0.7262  0.37271     C
O       0.9308   0.6517   0.3377     O
Cd      0.9346    0.421  0.71351    Cd
H       0.9356   0.0908   0.1911     H
C        0.939    0.011  0.63715     C
O       0.9401  0.35155   0.7885     O
N       0.9403  0.50653  0.64668     N
C        0.941   0.7317  0.76123     C
C       0.9416   0.9227  0.62542     C
O       0.9421   0.2204  0.72631     O
C       0.9484   0.2738  0.77833     C
C       0.9484   0.5946  0.55657     C
H       0.9495   0.6729   0.7541     H
C       0.9517   0.6438  0.50954     C
C       0.9543   0.7409  0.53942     C
H       0.9581   0.1145    0.779     H
H       0.9608   0.7691    0.507     H
C       0.9644   0.4203  0.41321     C
C       0.9673   0.1479  0.81957     C
C       0.9704   0.4641  0.36939     C
C       0.9706   0.2359   0.8304     C
C        0.975   0.2161  0.21759     C
N       0.9763  0.10778   0.8628     N
S      0.97916  0.17725  0.05823     S
H       0.9847   0.2453   0.4348     H
H       0.9875   0.3731   0.5161     H
S      0.98767  0.09216  0.97276     S
C       0.9883   0.1568  0.92058     C
H       0.9885   0.7236   0.0228     H
C       0.9891   0.2847  0.89056     C
O       0.9894  0.77745  0.39511     O
C       0.9899   0.1283  0.20594     C
H       0.9951    0.344   0.8997     H
H       0.9956   0.0427   0.6564     H
H       0.9985   0.8963   0.6373     H
C       0.9986   0.2449  0.93663     C
