data_I
_chemical_name_common  '/home/zhangsd/repos/MofS-CGCNN/ML/data/WS24/clean_cifs/OXOLET'
_cell_length_a 39.81440
_cell_length_b 39.81440
_cell_length_c 39.81440
_cell_angle_alpha 90.00000
_cell_angle_beta  90.00000
_cell_angle_gamma 90.00000
_space_group_name_H-M_alt      'P 1'


loop_
_space_group_symop_operation_xyz
  'x, y, z' 

loop_
_atom_site_label
_atom_site_fract_x
_atom_site_fract_y
_atom_site_fract_z
_atom_site_type_symbol
C       0.0049    0.108  0.96225     C
C       0.0049    0.142  0.28775     C
C       0.0049  0.28775    0.142     C
C       0.0049  0.46225    0.608     C
C       0.0049    0.608  0.46225     C
C       0.0049    0.642  0.78775     C
C       0.0049  0.78775    0.642     C
C       0.0049  0.96225    0.108     C
H       0.0114    0.106   0.9394     H
H       0.0114    0.144   0.3106     H
H       0.0114   0.3106    0.144     H
H       0.0114   0.4394    0.606     H
H       0.0114    0.606   0.4394     H
H       0.0114    0.644   0.8106     H
H       0.0114   0.8106    0.644     H
H       0.0114   0.9394    0.106     H
C      0.01352  0.27889  0.36371     C
C      0.01352  0.36371  0.27889     C
C      0.01352  0.38629  0.47111     C
C      0.01352  0.47111  0.38629     C
C      0.01352  0.77889  0.86371     C
C      0.01352  0.86371  0.77889     C
C      0.01352  0.88629  0.97111     C
C      0.01352  0.97111  0.88629     C
H       0.0198   0.3018   0.3658     H
H       0.0198   0.3658   0.3018     H
H       0.0198   0.3842   0.4482     H
H       0.0198   0.4482   0.3842     H
H       0.0198   0.8018   0.8658     H
H       0.0198   0.8658   0.8018     H
H       0.0198   0.8842   0.9482     H
H       0.0198   0.9482   0.8842     H
C      0.01984  0.01984  0.11645     C
C      0.01984  0.11645  0.01984     C
C      0.01984  0.13355  0.23016     C
C      0.01984  0.23016  0.13355     C
C      0.01984  0.51984  0.61645     C
C      0.01984  0.61645  0.51984     C
C      0.01984  0.63355  0.73016     C
C      0.01984  0.73016  0.63355     C
C       0.0288   0.0288  0.89482     C
C       0.0288   0.2212  0.35518     C
C       0.0288  0.35518   0.2212     C
C       0.0288  0.39482   0.5288     C
C       0.0288   0.5288  0.39482     C
C       0.0288   0.7212  0.85518     C
C       0.0288  0.85518   0.7212     C
C       0.0288  0.89482   0.0288     C
C      0.02889  0.11371  0.98648     C
C      0.02889  0.13629  0.26352     C
C      0.02889  0.26352  0.13629     C
C      0.02889  0.48648  0.61371     C
C      0.02889  0.61371  0.48648     C
C      0.02889  0.63629  0.76352     C
C      0.02889  0.76352  0.63629     C
C      0.02889  0.98648  0.11371     C
O      0.03592  0.07623  0.12457     O
O      0.03592  0.12457  0.07623     O
O      0.03592  0.12543  0.17377     O
O      0.03592  0.17377  0.12543     O
O      0.03592  0.57623  0.62457     O
O      0.03592  0.62457  0.57623     O
O      0.03592  0.62543  0.67377     O
O      0.03592  0.67377  0.62543     O
C      0.03775   0.2549    0.358     C
C      0.03775    0.358   0.2549     C
C      0.03775    0.392   0.4951     C
C      0.03775   0.4951    0.392     C
C      0.03775   0.7549    0.858     C
C      0.03775    0.858   0.7549     C
C      0.03775    0.892   0.9951     C
C      0.03775   0.9951    0.892     C
C      0.04615  0.04615  0.12224     C
C      0.04615  0.12224  0.04615     C
C      0.04615  0.12776  0.20385     C
C      0.04615  0.20385  0.12776     C
C      0.04615  0.54615  0.62224     C
C      0.04615  0.62224  0.54615     C
C      0.04615  0.62776  0.70385     C
C      0.04615  0.70385  0.62776     C
C       0.0509   0.0716   0.3294     C
C       0.0509   0.1784   0.9206     C
C       0.0509   0.3294   0.0716     C
C       0.0509   0.4206   0.6784     C
C       0.0509   0.5716   0.8294     C
C       0.0509   0.6784   0.4206     C
C       0.0509   0.8294   0.5716     C
C       0.0509   0.9206   0.1784     C
H       0.0518   0.1158   0.9802     H
H       0.0518   0.1342   0.2698     H
H       0.0518   0.2698   0.1342     H
H       0.0518   0.4802   0.6158     H
H       0.0518   0.6158   0.4802     H
H       0.0518   0.6342   0.7698     H
H       0.0518   0.7698   0.6342     H
H       0.0518   0.9802   0.1158     H
C      0.05412  0.05412  0.90041     C
C      0.05412  0.19588  0.34959     C
C      0.05412  0.34959  0.19588     C
C      0.05412  0.40041  0.55412     C
C      0.05412  0.55412  0.40041     C
C      0.05412  0.69588  0.84959     C
C      0.05412  0.84959  0.69588     C
C      0.05412  0.90041  0.05412     C
O      0.05934   0.1085   0.3378     O
O      0.05934   0.1415   0.9122     O
O      0.05934   0.3378   0.1085     O
O      0.05934   0.4122   0.6415     O
O      0.05934   0.6085   0.8378     O
O      0.05934   0.6415   0.4122     O
O      0.05934   0.8378   0.6085     O
O      0.05934   0.9122   0.1415     O
H       0.0606   0.2614    0.356     H
H       0.0606    0.356   0.2614     H
H       0.0606    0.394   0.4886     H
H       0.0606   0.4886    0.394     H
H       0.0606   0.7614    0.856     H
H       0.0606    0.856   0.7614     H
H       0.0606    0.894   0.9886     H
H       0.0606   0.9886    0.894     H
Zr     0.06284    0.125    0.125    Zr
Zr     0.06284    0.625    0.625    Zr
C       0.0716   0.0509   0.3294     C
C       0.0716   0.1991   0.9206     C
C       0.0716   0.3294   0.0509     C
C       0.0716   0.4206   0.6991     C
C       0.0716   0.5509   0.8294     C
C       0.0716   0.6991   0.4206     C
C       0.0716   0.8294   0.5509     C
C       0.0716   0.9206   0.1991     C
C      0.07495  0.07495  0.90477     C
C      0.07495  0.17505  0.34523     C
C      0.07495  0.34523  0.17505     C
C      0.07495  0.40477  0.57495     C
C      0.07495  0.57495  0.40477     C
C      0.07495  0.67505  0.84523     C
C      0.07495  0.84523  0.67505     C
C      0.07495  0.90477  0.07495     C
O      0.07623  0.03592  0.12457     O
O      0.07623  0.12457  0.03592     O
O      0.07623  0.12543  0.21408     O
O      0.07623  0.21408  0.12543     O
O      0.07623  0.53592  0.62457     O
O      0.07623  0.62457  0.53592     O
O      0.07623  0.62543  0.71408     O
O      0.07623  0.71408  0.62543     O
C       0.0794   0.3009   0.4284     C
C       0.0794   0.3216   0.4491     C
C       0.0794   0.4284   0.3009     C
C       0.0794   0.4491   0.3216     C
C       0.0794   0.8009   0.9284     C
C       0.0794   0.8216   0.9491     C
C       0.0794   0.9284   0.8009     C
C       0.0794   0.9491   0.8216     C
O       0.0878  0.30934   0.3915     O
O       0.0878   0.3585  0.44066     O
O       0.0878   0.3915  0.30934     O
O       0.0878  0.44066   0.3585     O
O       0.0878  0.80934   0.8915     O
O       0.0878   0.8585  0.94066     O
O       0.0878   0.8915  0.80934     O
O       0.0878  0.94066   0.8585     O
C      0.09033    0.342  0.38342     C
C      0.09033  0.36658    0.408     C
C      0.09033  0.38342    0.342     C
C      0.09033    0.408  0.36658     C
C      0.09033    0.842  0.88342     C
C      0.09033  0.86658    0.908     C
C      0.09033  0.88342    0.842     C
C      0.09033    0.908  0.86658     C
C        0.092  0.11658  0.34033     C
C        0.092  0.13342  0.90967     C
C        0.092  0.34033  0.11658     C
C        0.092  0.40967  0.63342     C
C        0.092  0.61658  0.84033     C
C        0.092  0.63342  0.40967     C
C        0.092  0.84033  0.61658     C
C        0.092  0.90967  0.13342     C
C      0.09262  0.35029  0.35029     C
C      0.09262  0.39971  0.39971     C
C      0.09262  0.85029  0.85029     C
C      0.09262  0.89971  0.89971     C
O      0.09289  0.09289  0.15711     O
O      0.09289  0.15711  0.09289     O
O      0.09289  0.59289  0.65711     O
O      0.09289  0.65711  0.59289     O
C      0.09523  0.32495  0.32495     C
C      0.09523  0.42505  0.42505     C
C      0.09523  0.82495  0.82495     C
C      0.09523  0.92505  0.92505     C
O      0.09552  0.09552  0.09552     O
O      0.09552  0.15448  0.15448     O
O      0.09552  0.59552  0.59552     O
O      0.09552  0.65448  0.65448     O
C      0.09959  0.30412  0.30412     C
C      0.09959  0.44588  0.44588     C
C      0.09959  0.80412  0.80412     C
C      0.09959  0.94588  0.94588     C
C      0.10029  0.10029  0.90738     C
C      0.10029  0.14971  0.34262     C
C      0.10029  0.34262  0.14971     C
C      0.10029  0.40738  0.60029     C
C      0.10029  0.60029  0.40738     C
C      0.10029  0.64971  0.84262     C
C      0.10029  0.84262  0.64971     C
C      0.10029  0.90738  0.10029     C
C      0.10518   0.2788   0.2788     C
C      0.10518   0.4712   0.4712     C
C      0.10518   0.7788   0.7788     C
C      0.10518   0.9712   0.9712     C
H        0.106   0.0114   0.9394     H
H        0.106   0.2386   0.3106     H
H        0.106   0.3106   0.2386     H
H        0.106   0.4394   0.5114     H
H        0.106   0.5114   0.4394     H
H        0.106   0.7386   0.8106     H
H        0.106   0.8106   0.7386     H
H        0.106   0.9394   0.0114     H
C        0.108   0.0049  0.96225     C
C        0.108   0.2451  0.28775     C
C        0.108  0.28775   0.2451     C
C        0.108  0.46225   0.5049     C
C        0.108   0.5049  0.46225     C
C        0.108   0.7451  0.78775     C
C        0.108  0.78775   0.7451     C
C        0.108  0.96225   0.0049     C
O       0.1085  0.05934   0.3378     O
O       0.1085  0.19066   0.9122     O
O       0.1085   0.3378  0.05934     O
O       0.1085   0.4122  0.69066     O
O       0.1085  0.55934   0.8378     O
O       0.1085  0.69066   0.4122     O
O       0.1085   0.8378  0.55934     O
O       0.1085   0.9122  0.19066     O
C      0.11371  0.02889  0.98648     C
C      0.11371  0.22111  0.26352     C
C      0.11371  0.26352  0.22111     C
C      0.11371  0.48648  0.52889     C
C      0.11371  0.52889  0.48648     C
C      0.11371  0.72111  0.76352     C
C      0.11371  0.76352  0.72111     C
C      0.11371  0.98648  0.02889     C
H       0.1158   0.0518   0.9802     H
H       0.1158   0.1982   0.2698     H
H       0.1158   0.2698   0.1982     H
H       0.1158   0.4802   0.5518     H
H       0.1158   0.5518   0.4802     H
H       0.1158   0.6982   0.7698     H
H       0.1158   0.7698   0.6982     H
H       0.1158   0.9802   0.0518     H
C      0.11645  0.01984  0.01984     C
C      0.11645  0.23016  0.23016     C
C      0.11645  0.51984  0.51984     C
C      0.11645  0.73016  0.73016     C
C      0.11658    0.092  0.34033     C
C      0.11658    0.158  0.90967     C
C      0.11658  0.34033    0.092     C
C      0.11658  0.40967    0.658     C
C      0.11658    0.592  0.84033     C
C      0.11658    0.658  0.40967     C
C      0.11658  0.84033    0.592     C
C      0.11658  0.90967    0.158     C
C      0.12224  0.04615  0.04615     C
C      0.12224  0.20385  0.20385     C
C      0.12224  0.54615  0.54615     C
C      0.12224  0.70385  0.70385     C
O      0.12457  0.03592  0.07623     O
O      0.12457  0.07623  0.03592     O
O      0.12457  0.17377  0.21408     O
O      0.12457  0.21408  0.17377     O
O      0.12457  0.53592  0.57623     O
O      0.12457  0.57623  0.53592     O
O      0.12457  0.67377  0.71408     O
O      0.12457  0.71408  0.67377     O
Zr       0.125  0.06284    0.125    Zr
Zr       0.125    0.125  0.06284    Zr
Zr       0.125    0.125  0.18716    Zr
Zr       0.125  0.18716    0.125    Zr
Zr       0.125  0.56284    0.625    Zr
Zr       0.125    0.625  0.56284    Zr
Zr       0.125    0.625  0.68716    Zr
Zr       0.125  0.68716    0.625    Zr
O      0.12543  0.03592  0.17377     O
O      0.12543  0.07623  0.21408     O
O      0.12543  0.17377  0.03592     O
O      0.12543  0.21408  0.07623     O
O      0.12543  0.53592  0.67377     O
O      0.12543  0.57623  0.71408     O
O      0.12543  0.67377  0.53592     O
O      0.12543  0.71408  0.57623     O
C      0.12776  0.04615  0.20385     C
C      0.12776  0.20385  0.04615     C
C      0.12776  0.54615  0.70385     C
C      0.12776  0.70385  0.54615     C
C      0.13342    0.092  0.90967     C
C      0.13342    0.158  0.34033     C
C      0.13342  0.34033    0.158     C
C      0.13342  0.40967    0.592     C
C      0.13342    0.592  0.40967     C
C      0.13342    0.658  0.84033     C
C      0.13342  0.84033    0.658     C
C      0.13342  0.90967    0.092     C
C      0.13355  0.01984  0.23016     C
C      0.13355  0.23016  0.01984     C
C      0.13355  0.51984  0.73016     C
C      0.13355  0.73016  0.51984     C
H       0.1342   0.0518   0.2698     H
H       0.1342   0.1982   0.9802     H
H       0.1342   0.2698   0.0518     H
H       0.1342   0.4802   0.6982     H
H       0.1342   0.5518   0.7698     H
H       0.1342   0.6982   0.4802     H
H       0.1342   0.7698   0.5518     H
H       0.1342   0.9802   0.1982     H
C      0.13629  0.02889  0.26352     C
C      0.13629  0.22111  0.98648     C
C      0.13629  0.26352  0.02889     C
C      0.13629  0.48648  0.72111     C
C      0.13629  0.52889  0.76352     C
C      0.13629  0.72111  0.48648     C
C      0.13629  0.76352  0.52889     C
C      0.13629  0.98648  0.22111     C
O       0.1415  0.05934   0.9122     O
O       0.1415  0.19066   0.3378     O
O       0.1415   0.3378  0.19066     O
O       0.1415   0.4122  0.55934     O
O       0.1415  0.55934   0.4122     O
O       0.1415  0.69066   0.8378     O
O       0.1415   0.8378  0.69066     O
O       0.1415   0.9122  0.05934     O
C        0.142   0.0049  0.28775     C
C        0.142   0.2451  0.96225     C
C        0.142  0.28775   0.0049     C
C        0.142  0.46225   0.7451     C
C        0.142   0.5049  0.78775     C
C        0.142   0.7451  0.46225     C
C        0.142  0.78775   0.5049     C
C        0.142  0.96225   0.2451     C
H        0.144   0.0114   0.3106     H
H        0.144   0.2386   0.9394     H
H        0.144   0.3106   0.0114     H
H        0.144   0.4394   0.7386     H
H        0.144   0.5114   0.8106     H
H        0.144   0.7386   0.4394     H
H        0.144   0.8106   0.5114     H
H        0.144   0.9394   0.2386     H
C      0.14482   0.2788   0.9712     C
C      0.14482   0.4712   0.7788     C
C      0.14482   0.7788   0.4712     C
C      0.14482   0.9712   0.2788     C
C      0.14971  0.10029  0.34262     C
C      0.14971  0.14971  0.90738     C
C      0.14971  0.34262  0.10029     C
C      0.14971  0.40738  0.64971     C
C      0.14971  0.60029  0.84262     C
C      0.14971  0.64971  0.40738     C
C      0.14971  0.84262  0.60029     C
C      0.14971  0.90738  0.14971     C
C      0.15041  0.30412  0.94588     C
C      0.15041  0.44588  0.80412     C
C      0.15041  0.80412  0.44588     C
C      0.15041  0.94588  0.30412     C
O      0.15448  0.09552  0.15448     O
O      0.15448  0.15448  0.09552     O
O      0.15448  0.59552  0.65448     O
O      0.15448  0.65448  0.59552     O
C      0.15477  0.32495  0.92505     C
C      0.15477  0.42505  0.82495     C
C      0.15477  0.82495  0.42505     C
C      0.15477  0.92505  0.32495     C
O      0.15711  0.09289  0.09289     O
O      0.15711  0.15711  0.15711     O
O      0.15711  0.59289  0.59289     O
O      0.15711  0.65711  0.65711     O
C      0.15738  0.35029  0.89971     C
C      0.15738  0.39971  0.85029     C
C      0.15738  0.85029  0.39971     C
C      0.15738  0.89971  0.35029     C
C        0.158  0.11658  0.90967     C
C        0.158  0.13342  0.34033     C
C        0.158  0.34033  0.13342     C
C        0.158  0.40967  0.61658     C
C        0.158  0.61658  0.40967     C
C        0.158  0.63342  0.84033     C
C        0.158  0.84033  0.63342     C
C        0.158  0.90967  0.11658     C
C      0.15967    0.342  0.86658     C
C      0.15967  0.36658    0.842     C
C      0.15967  0.38342    0.908     C
C      0.15967    0.408  0.88342     C
C      0.15967    0.842  0.36658     C
C      0.15967  0.86658    0.342     C
C      0.15967  0.88342    0.408     C
C      0.15967    0.908  0.38342     C
O       0.1622  0.30934   0.8585     O
O       0.1622   0.3585  0.80934     O
O       0.1622   0.3915  0.94066     O
O       0.1622  0.44066   0.8915     O
O       0.1622  0.80934   0.3585     O
O       0.1622   0.8585  0.30934     O
O       0.1622   0.8915  0.44066     O
O       0.1622  0.94066   0.3915     O
C       0.1706   0.3009   0.8216     C
C       0.1706   0.3216   0.8009     C
C       0.1706   0.4284   0.9491     C
C       0.1706   0.4491   0.9284     C
C       0.1706   0.8009   0.3216     C
C       0.1706   0.8216   0.3009     C
C       0.1706   0.9284   0.4491     C
C       0.1706   0.9491   0.4284     C
O      0.17377  0.03592  0.12543     O
O      0.17377  0.12457  0.21408     O
O      0.17377  0.12543  0.03592     O
O      0.17377  0.21408  0.12457     O
O      0.17377  0.53592  0.62543     O
O      0.17377  0.62457  0.71408     O
O      0.17377  0.62543  0.53592     O
O      0.17377  0.71408  0.62457     O
C      0.17505  0.07495  0.34523     C
C      0.17505  0.17505  0.90477     C
C      0.17505  0.34523  0.07495     C
C      0.17505  0.40477  0.67505     C
C      0.17505  0.57495  0.84523     C
C      0.17505  0.67505  0.40477     C
C      0.17505  0.84523  0.57495     C
C      0.17505  0.90477  0.17505     C
C       0.1784   0.0509   0.9206     C
C       0.1784   0.1991   0.3294     C
C       0.1784   0.3294   0.1991     C
C       0.1784   0.4206   0.5509     C
C       0.1784   0.5509   0.4206     C
C       0.1784   0.6991   0.8294     C
C       0.1784   0.8294   0.6991     C
C       0.1784   0.9206   0.0509     C
Zr     0.18716    0.125    0.125    Zr
Zr     0.18716    0.625    0.625    Zr
H       0.1894   0.2614    0.894     H
H       0.1894    0.356   0.9886     H
H       0.1894    0.394   0.7614     H
H       0.1894   0.4886    0.856     H
H       0.1894   0.7614    0.394     H
H       0.1894    0.856   0.4886     H
H       0.1894    0.894   0.2614     H
H       0.1894   0.9886    0.356     H
O      0.19066   0.1085   0.9122     O
O      0.19066   0.1415   0.3378     O
O      0.19066   0.3378   0.1415     O
O      0.19066   0.4122   0.6085     O
O      0.19066   0.6085   0.4122     O
O      0.19066   0.6415   0.8378     O
O      0.19066   0.8378   0.6415     O
O      0.19066   0.9122   0.1085     O
C      0.19588  0.05412  0.34959     C
C      0.19588  0.19588  0.90041     C
C      0.19588  0.34959  0.05412     C
C      0.19588  0.40041  0.69588     C
C      0.19588  0.55412  0.84959     C
C      0.19588  0.69588  0.40041     C
C      0.19588  0.84959  0.55412     C
C      0.19588  0.90041  0.19588     C
H       0.1982   0.1158   0.2698     H
H       0.1982   0.1342   0.9802     H
H       0.1982   0.2698   0.1158     H
H       0.1982   0.4802   0.6342     H
H       0.1982   0.6158   0.7698     H
H       0.1982   0.6342   0.4802     H
H       0.1982   0.7698   0.6158     H
H       0.1982   0.9802   0.1342     H
C       0.1991   0.0716   0.9206     C
C       0.1991   0.1784   0.3294     C
C       0.1991   0.3294   0.1784     C
C       0.1991   0.4206   0.5716     C
C       0.1991   0.5716   0.4206     C
C       0.1991   0.6784   0.8294     C
C       0.1991   0.8294   0.6784     C
C       0.1991   0.9206   0.0716     C
C      0.20385  0.04615  0.12776     C
C      0.20385  0.12224  0.20385     C
C      0.20385  0.12776  0.04615     C
C      0.20385  0.20385  0.12224     C
C      0.20385  0.54615  0.62776     C
C      0.20385  0.62224  0.70385     C
C      0.20385  0.62776  0.54615     C
C      0.20385  0.70385  0.62224     C
C      0.21225   0.2549    0.892     C
C      0.21225    0.358   0.9951     C
C      0.21225    0.392   0.7549     C
C      0.21225   0.4951    0.858     C
C      0.21225   0.7549    0.392     C
C      0.21225    0.858   0.4951     C
C      0.21225    0.892   0.2549     C
C      0.21225   0.9951    0.358     C
O      0.21408  0.07623  0.12543     O
O      0.21408  0.12457  0.17377     O
O      0.21408  0.12543  0.07623     O
O      0.21408  0.17377  0.12457     O
O      0.21408  0.57623  0.62543     O
O      0.21408  0.62457  0.67377     O
O      0.21408  0.62543  0.57623     O
O      0.21408  0.67377  0.62457     O
C      0.22111  0.11371  0.26352     C
C      0.22111  0.13629  0.98648     C
C      0.22111  0.26352  0.11371     C
C      0.22111  0.48648  0.63629     C
C      0.22111  0.61371  0.76352     C
C      0.22111  0.63629  0.48648     C
C      0.22111  0.76352  0.61371     C
C      0.22111  0.98648  0.13629     C
C       0.2212   0.0288  0.35518     C
C       0.2212   0.2212  0.89482     C
C       0.2212  0.35518   0.0288     C
C       0.2212  0.39482   0.7212     C
C       0.2212   0.5288  0.85518     C
C       0.2212   0.7212  0.39482     C
C       0.2212  0.85518   0.5288     C
C       0.2212  0.89482   0.2212     C
C      0.23016  0.01984  0.13355     C
C      0.23016  0.11645  0.23016     C
C      0.23016  0.13355  0.01984     C
C      0.23016  0.23016  0.11645     C
C      0.23016  0.51984  0.63355     C
C      0.23016  0.61645  0.73016     C
C      0.23016  0.63355  0.51984     C
C      0.23016  0.73016  0.61645     C
H       0.2302   0.3018   0.8842     H
H       0.2302   0.3658   0.9482     H
H       0.2302   0.3842   0.8018     H
H       0.2302   0.4482   0.8658     H
H       0.2302   0.8018   0.3842     H
H       0.2302   0.8658   0.4482     H
H       0.2302   0.8842   0.3018     H
H       0.2302   0.9482   0.3658     H
C      0.23648  0.27889  0.88629     C
C      0.23648  0.36371  0.97111     C
C      0.23648  0.38629  0.77889     C
C      0.23648  0.47111  0.86371     C
C      0.23648  0.77889  0.38629     C
C      0.23648  0.86371  0.47111     C
C      0.23648  0.88629  0.27889     C
C      0.23648  0.97111  0.36371     C
H       0.2386    0.106   0.3106     H
H       0.2386    0.144   0.9394     H
H       0.2386   0.3106    0.106     H
H       0.2386   0.4394    0.644     H
H       0.2386    0.606   0.8106     H
H       0.2386    0.644   0.4394     H
H       0.2386   0.8106    0.606     H
H       0.2386   0.9394    0.144     H
C       0.2451    0.108  0.28775     C
C       0.2451    0.142  0.96225     C
C       0.2451  0.28775    0.108     C
C       0.2451  0.46225    0.642     C
C       0.2451    0.608  0.78775     C
C       0.2451    0.642  0.46225     C
C       0.2451  0.78775    0.608     C
C       0.2451  0.96225    0.142     C
C       0.2549  0.03775    0.358     C
C       0.2549  0.21225    0.892     C
C       0.2549    0.358  0.03775     C
C       0.2549    0.392  0.71225     C
C       0.2549  0.53775    0.858     C
C       0.2549  0.71225    0.392     C
C       0.2549    0.858  0.53775     C
C       0.2549    0.892  0.21225     C
H       0.2614   0.0606    0.356     H
H       0.2614   0.1894    0.894     H
H       0.2614    0.356   0.0606     H
H       0.2614    0.394   0.6894     H
H       0.2614   0.5606    0.856     H
H       0.2614   0.6894    0.394     H
H       0.2614    0.856   0.5606     H
H       0.2614    0.894   0.1894     H
C      0.26352  0.02889  0.13629     C
C      0.26352  0.11371  0.22111     C
C      0.26352  0.13629  0.02889     C
C      0.26352  0.22111  0.11371     C
C      0.26352  0.52889  0.63629     C
C      0.26352  0.61371  0.72111     C
C      0.26352  0.63629  0.52889     C
C      0.26352  0.72111  0.61371     C
H       0.2698   0.0518   0.1342     H
H       0.2698   0.1158   0.1982     H
H       0.2698   0.1342   0.0518     H
H       0.2698   0.1982   0.1158     H
H       0.2698   0.5518   0.6342     H
H       0.2698   0.6158   0.6982     H
H       0.2698   0.6342   0.5518     H
H       0.2698   0.6982   0.6158     H
C      0.26984  0.26984  0.88355     C
C      0.26984  0.36645  0.98016     C
C      0.26984  0.38355  0.76984     C
C      0.26984  0.48016  0.86645     C
C      0.26984  0.76984  0.38355     C
C      0.26984  0.86645  0.48016     C
C      0.26984  0.88355  0.26984     C
C      0.26984  0.98016  0.36645     C
C       0.2788  0.10518   0.2788     C
C       0.2788  0.14482   0.9712     C
C       0.2788   0.2788  0.10518     C
C       0.2788   0.4712  0.64482     C
C       0.2788  0.60518   0.7788     C
C       0.2788  0.64482   0.4712     C
C       0.2788   0.7788  0.60518     C
C       0.2788   0.9712  0.14482     C
C      0.27889  0.01352  0.36371     C
C      0.27889  0.23648  0.88629     C
C      0.27889  0.36371  0.01352     C
C      0.27889  0.38629  0.73648     C
C      0.27889  0.51352  0.86371     C
C      0.27889  0.73648  0.38629     C
C      0.27889  0.86371  0.51352     C
C      0.27889  0.88629  0.23648     C
O      0.28592  0.32623  0.87543     O
O      0.28592  0.37457  0.92377     O
O      0.28592  0.37543  0.82623     O
O      0.28592  0.42377  0.87457     O
O      0.28592  0.82623  0.37543     O
O      0.28592  0.87457  0.42377     O
O      0.28592  0.87543  0.32623     O
O      0.28592  0.92377  0.37457     O
C      0.28775   0.0049    0.142     C
C      0.28775    0.108   0.2451     C
C      0.28775    0.142   0.0049     C
C      0.28775   0.2451    0.108     C
C      0.28775   0.5049    0.642     C
C      0.28775    0.608   0.7451     C
C      0.28775    0.642   0.5049     C
C      0.28775   0.7451    0.608     C
C      0.29615  0.29615  0.87776     C
C      0.29615  0.37224  0.95385     C
C      0.29615  0.37776  0.79615     C
C      0.29615  0.45385  0.87224     C
C      0.29615  0.79615  0.37776     C
C      0.29615  0.87224  0.45385     C
C      0.29615  0.87776  0.29615     C
C      0.29615  0.95385  0.37224     C
C       0.3009   0.0794   0.4284     C
C       0.3009   0.1706   0.8216     C
C       0.3009   0.3216   0.6706     C
C       0.3009   0.4284   0.0794     C
C       0.3009   0.5794   0.9284     C
C       0.3009   0.6706   0.3216     C
C       0.3009   0.8216   0.1706     C
C       0.3009   0.9284   0.5794     C
H       0.3018   0.0198   0.3658     H
H       0.3018   0.2302   0.8842     H
H       0.3018   0.3658   0.0198     H
H       0.3018   0.3842   0.7302     H
H       0.3018   0.5198   0.8658     H
H       0.3018   0.7302   0.3842     H
H       0.3018   0.8658   0.5198     H
H       0.3018   0.8842   0.2302     H
C      0.30412  0.09959  0.30412     C
C      0.30412  0.15041  0.94588     C
C      0.30412  0.30412  0.09959     C
C      0.30412  0.44588  0.65041     C
C      0.30412  0.59959  0.80412     C
C      0.30412  0.65041  0.44588     C
C      0.30412  0.80412  0.59959     C
C      0.30412  0.94588  0.15041     C
O      0.30934   0.0878   0.3915     O
O      0.30934   0.1622   0.8585     O
O      0.30934   0.3585   0.6622     O
O      0.30934   0.3915   0.0878     O
O      0.30934   0.5878   0.8915     O
O      0.30934   0.6622   0.3585     O
O      0.30934   0.8585   0.1622     O
O      0.30934   0.8915   0.5878     O
H       0.3106   0.0114    0.144     H
H       0.3106    0.106   0.2386     H
H       0.3106    0.144   0.0114     H
H       0.3106   0.2386    0.106     H
H       0.3106   0.5114    0.644     H
H       0.3106    0.606   0.7386     H
H       0.3106    0.644   0.5114     H
H       0.3106   0.7386    0.606     H
Zr     0.31284    0.375    0.875    Zr
Zr     0.31284    0.875    0.375    Zr
C       0.3216   0.0794   0.4491     C
C       0.3216   0.1706   0.8009     C
C       0.3216   0.3009   0.6706     C
C       0.3216   0.4491   0.0794     C
C       0.3216   0.5794   0.9491     C
C       0.3216   0.6706   0.3009     C
C       0.3216   0.8009   0.1706     C
C       0.3216   0.9491   0.5794     C
C      0.32495  0.09523  0.32495     C
C      0.32495  0.15477  0.92505     C
C      0.32495  0.32495  0.09523     C
C      0.32495  0.42505  0.65477     C
C      0.32495  0.59523  0.82495     C
C      0.32495  0.65477  0.42505     C
C      0.32495  0.82495  0.59523     C
C      0.32495  0.92505  0.15477     C
O      0.32623  0.28592  0.87543     O
O      0.32623  0.37457  0.96408     O
O      0.32623  0.37543  0.78592     O
O      0.32623  0.46408  0.87457     O
O      0.32623  0.78592  0.37543     O
O      0.32623  0.87457  0.46408     O
O      0.32623  0.87543  0.28592     O
O      0.32623  0.96408  0.37457     O
C       0.3294   0.0509   0.0716     C
C       0.3294   0.0716   0.0509     C
C       0.3294   0.1784   0.1991     C
C       0.3294   0.1991   0.1784     C
C       0.3294   0.5509   0.5716     C
C       0.3294   0.5716   0.5509     C
C       0.3294   0.6784   0.6991     C
C       0.3294   0.6991   0.6784     C
O       0.3378  0.05934   0.1085     O
O       0.3378   0.1085  0.05934     O
O       0.3378   0.1415  0.19066     O
O       0.3378  0.19066   0.1415     O
O       0.3378  0.55934   0.6085     O
O       0.3378   0.6085  0.55934     O
O       0.3378   0.6415  0.69066     O
O       0.3378  0.69066   0.6415     O
C      0.34033    0.092  0.11658     C
C      0.34033  0.11658    0.092     C
C      0.34033  0.13342    0.158     C
C      0.34033    0.158  0.13342     C
C      0.34033    0.592  0.61658     C
C      0.34033  0.61658    0.592     C
C      0.34033  0.63342    0.658     C
C      0.34033    0.658  0.63342     C
C        0.342  0.09033  0.38342     C
C        0.342  0.15967  0.86658     C
C        0.342  0.36658  0.65967     C
C        0.342  0.38342  0.09033     C
C        0.342  0.59033  0.88342     C
C        0.342  0.65967  0.36658     C
C        0.342  0.86658  0.15967     C
C        0.342  0.88342  0.59033     C
C      0.34262  0.10029  0.14971     C
C      0.34262  0.14971  0.10029     C
C      0.34262  0.60029  0.64971     C
C      0.34262  0.64971  0.60029     C
O      0.34289  0.34289  0.84289     O
O      0.34289  0.40711  0.90711     O
O      0.34289  0.84289  0.34289     O
O      0.34289  0.90711  0.40711     O
C      0.34523  0.07495  0.17505     C
C      0.34523  0.17505  0.07495     C
C      0.34523  0.57495  0.67505     C
C      0.34523  0.67505  0.57495     C
O      0.34552  0.34552  0.90448     O
O      0.34552  0.40448  0.84552     O
O      0.34552  0.84552  0.40448     O
O      0.34552  0.90448  0.34552     O
C      0.34959  0.05412  0.19588     C
C      0.34959  0.19588  0.05412     C
C      0.34959  0.55412  0.69588     C
C      0.34959  0.69588  0.55412     C
C      0.35029  0.09262  0.35029     C
C      0.35029  0.15738  0.89971     C
C      0.35029  0.35029  0.09262     C
C      0.35029  0.39971  0.65738     C
C      0.35029  0.59262  0.85029     C
C      0.35029  0.65738  0.39971     C
C      0.35029  0.85029  0.59262     C
C      0.35029  0.89971  0.15738     C
C      0.35518   0.0288   0.2212     C
C      0.35518   0.2212   0.0288     C
C      0.35518   0.5288   0.7212     C
C      0.35518   0.7212   0.5288     C
H        0.356   0.0606   0.2614     H
H        0.356   0.1894   0.9886     H
H        0.356   0.2614   0.0606     H
H        0.356   0.4886   0.6894     H
H        0.356   0.5606   0.7614     H
H        0.356   0.6894   0.4886     H
H        0.356   0.7614   0.5606     H
H        0.356   0.9886   0.1894     H
C        0.358  0.03775   0.2549     C
C        0.358  0.21225   0.9951     C
C        0.358   0.2549  0.03775     C
C        0.358   0.4951  0.71225     C
C        0.358  0.53775   0.7549     C
C        0.358  0.71225   0.4951     C
C        0.358   0.7549  0.53775     C
C        0.358   0.9951  0.21225     C
O       0.3585   0.0878  0.44066     O
O       0.3585   0.1622  0.80934     O
O       0.3585  0.30934   0.6622     O
O       0.3585  0.44066   0.0878     O
O       0.3585   0.5878  0.94066     O
O       0.3585   0.6622  0.30934     O
O       0.3585  0.80934   0.1622     O
O       0.3585  0.94066   0.5878     O
C      0.36371  0.01352  0.27889     C
C      0.36371  0.23648  0.97111     C
C      0.36371  0.27889  0.01352     C
C      0.36371  0.47111  0.73648     C
C      0.36371  0.51352  0.77889     C
C      0.36371  0.73648  0.47111     C
C      0.36371  0.77889  0.51352     C
C      0.36371  0.97111  0.23648     C
H       0.3658   0.0198   0.3018     H
H       0.3658   0.2302   0.9482     H
H       0.3658   0.3018   0.0198     H
H       0.3658   0.4482   0.7302     H
H       0.3658   0.5198   0.8018     H
H       0.3658   0.7302   0.4482     H
H       0.3658   0.8018   0.5198     H
H       0.3658   0.9482   0.2302     H
C      0.36645  0.26984  0.98016     C
C      0.36645  0.48016  0.76984     C
C      0.36645  0.76984  0.48016     C
C      0.36645  0.98016  0.26984     C
C      0.36658  0.09033    0.408     C
C      0.36658  0.15967    0.842     C
C      0.36658    0.342  0.65967     C
C      0.36658    0.408  0.09033     C
C      0.36658  0.59033    0.908     C
C      0.36658  0.65967    0.342     C
C      0.36658    0.842  0.15967     C
C      0.36658    0.908  0.59033     C
C      0.37224  0.29615  0.95385     C
C      0.37224  0.45385  0.79615     C
C      0.37224  0.79615  0.45385     C
C      0.37224  0.95385  0.29615     C
O      0.37457  0.28592  0.92377     O
O      0.37457  0.32623  0.96408     O
O      0.37457  0.42377  0.78592     O
O      0.37457  0.46408  0.82623     O
O      0.37457  0.78592  0.42377     O
O      0.37457  0.82623  0.46408     O
O      0.37457  0.92377  0.28592     O
O      0.37457  0.96408  0.32623     O
Zr       0.375  0.31284    0.875    Zr
Zr       0.375    0.375  0.81284    Zr
Zr       0.375    0.375  0.93716    Zr
Zr       0.375  0.43716    0.875    Zr
Zr       0.375  0.81284    0.375    Zr
Zr       0.375    0.875  0.31284    Zr
Zr       0.375    0.875  0.43716    Zr
Zr       0.375  0.93716    0.375    Zr
O      0.37543  0.28592  0.82623     O
O      0.37543  0.32623  0.78592     O
O      0.37543  0.42377  0.96408     O
O      0.37543  0.46408  0.92377     O
O      0.37543  0.78592  0.32623     O
O      0.37543  0.82623  0.28592     O
O      0.37543  0.92377  0.46408     O
O      0.37543  0.96408  0.42377     O
C      0.37776  0.29615  0.79615     C
C      0.37776  0.45385  0.95385     C
C      0.37776  0.79615  0.29615     C
C      0.37776  0.95385  0.45385     C
C      0.38342  0.09033    0.342     C
C      0.38342  0.15967    0.908     C
C      0.38342    0.342  0.09033     C
C      0.38342    0.408  0.65967     C
C      0.38342  0.59033    0.842     C
C      0.38342  0.65967    0.408     C
C      0.38342    0.842  0.59033     C
C      0.38342    0.908  0.15967     C
C      0.38355  0.26984  0.76984     C
C      0.38355  0.48016  0.98016     C
C      0.38355  0.76984  0.26984     C
C      0.38355  0.98016  0.48016     C
H       0.3842   0.0198   0.4482     H
H       0.3842   0.2302   0.8018     H
H       0.3842   0.3018   0.7302     H
H       0.3842   0.4482   0.0198     H
H       0.3842   0.5198   0.9482     H
H       0.3842   0.7302   0.3018     H
H       0.3842   0.8018   0.2302     H
H       0.3842   0.9482   0.5198     H
C      0.38629  0.01352  0.47111     C
C      0.38629  0.23648  0.77889     C
C      0.38629  0.27889  0.73648     C
C      0.38629  0.47111  0.01352     C
C      0.38629  0.51352  0.97111     C
C      0.38629  0.73648  0.27889     C
C      0.38629  0.77889  0.23648     C
C      0.38629  0.97111  0.51352     C
O       0.3915   0.0878  0.30934     O
O       0.3915   0.1622  0.94066     O
O       0.3915  0.30934   0.0878     O
O       0.3915  0.44066   0.6622     O
O       0.3915   0.5878  0.80934     O
O       0.3915   0.6622  0.44066     O
O       0.3915  0.80934   0.5878     O
O       0.3915  0.94066   0.1622     O
C        0.392  0.03775   0.4951     C
C        0.392  0.21225   0.7549     C
C        0.392   0.2549  0.71225     C
C        0.392   0.4951  0.03775     C
C        0.392  0.53775   0.9951     C
C        0.392  0.71225   0.2549     C
C        0.392   0.7549  0.21225     C
C        0.392   0.9951  0.53775     C
H        0.394   0.0606   0.4886     H
H        0.394   0.1894   0.7614     H
H        0.394   0.2614   0.6894     H
H        0.394   0.4886   0.0606     H
H        0.394   0.5606   0.9886     H
H        0.394   0.6894   0.2614     H
H        0.394   0.7614   0.1894     H
H        0.394   0.9886   0.5606     H
C      0.39482   0.0288   0.5288     C
C      0.39482   0.2212   0.7212     C
C      0.39482   0.5288   0.0288     C
C      0.39482   0.7212   0.2212     C
C      0.39971  0.09262  0.39971     C
C      0.39971  0.15738  0.85029     C
C      0.39971  0.35029  0.65738     C
C      0.39971  0.39971  0.09262     C
C      0.39971  0.59262  0.89971     C
C      0.39971  0.65738  0.35029     C
C      0.39971  0.85029  0.15738     C
C      0.39971  0.89971  0.59262     C
C      0.40041  0.05412  0.55412     C
C      0.40041  0.19588  0.69588     C
C      0.40041  0.55412  0.05412     C
C      0.40041  0.69588  0.19588     C
O      0.40448  0.34552  0.84552     O
O      0.40448  0.40448  0.90448     O
O      0.40448  0.84552  0.34552     O
O      0.40448  0.90448  0.40448     O
C      0.40477  0.07495  0.57495     C
C      0.40477  0.17505  0.67505     C
C      0.40477  0.57495  0.07495     C
C      0.40477  0.67505  0.17505     C
O      0.40711  0.34289  0.90711     O
O      0.40711  0.40711  0.84289     O
O      0.40711  0.84289  0.40711     O
O      0.40711  0.90711  0.34289     O
C      0.40738  0.10029  0.60029     C
C      0.40738  0.14971  0.64971     C
C      0.40738  0.60029  0.10029     C
C      0.40738  0.64971  0.14971     C
C        0.408  0.09033  0.36658     C
C        0.408  0.15967  0.88342     C
C        0.408  0.36658  0.09033     C
C        0.408  0.38342  0.65967     C
C        0.408  0.59033  0.86658     C
C        0.408  0.65967  0.38342     C
C        0.408  0.86658  0.59033     C
C        0.408  0.88342  0.15967     C
C      0.40967    0.092  0.63342     C
C      0.40967  0.11658    0.658     C
C      0.40967  0.13342    0.592     C
C      0.40967    0.158  0.61658     C
C      0.40967    0.592  0.13342     C
C      0.40967  0.61658    0.158     C
C      0.40967  0.63342    0.092     C
C      0.40967    0.658  0.11658     C
O       0.4122  0.05934   0.6415     O
O       0.4122   0.1085  0.69066     O
O       0.4122   0.1415  0.55934     O
O       0.4122  0.19066   0.6085     O
O       0.4122  0.55934   0.1415     O
O       0.4122   0.6085  0.19066     O
O       0.4122   0.6415  0.05934     O
O       0.4122  0.69066   0.1085     O
C       0.4206   0.0509   0.6784     C
C       0.4206   0.0716   0.6991     C
C       0.4206   0.1784   0.5509     C
C       0.4206   0.1991   0.5716     C
C       0.4206   0.5509   0.1784     C
C       0.4206   0.5716   0.1991     C
C       0.4206   0.6784   0.0509     C
C       0.4206   0.6991   0.0716     C
O      0.42377  0.28592  0.87457     O
O      0.42377  0.37457  0.78592     O
O      0.42377  0.37543  0.96408     O
O      0.42377  0.46408  0.87543     O
O      0.42377  0.78592  0.37457     O
O      0.42377  0.87457  0.28592     O
O      0.42377  0.87543  0.46408     O
O      0.42377  0.96408  0.37543     O
C      0.42505  0.09523  0.42505     C
C      0.42505  0.15477  0.82495     C
C      0.42505  0.32495  0.65477     C
C      0.42505  0.42505  0.09523     C
C      0.42505  0.59523  0.92505     C
C      0.42505  0.65477  0.32495     C
C      0.42505  0.82495  0.15477     C
C      0.42505  0.92505  0.59523     C
C       0.4284   0.0794   0.3009     C
C       0.4284   0.1706   0.9491     C
C       0.4284   0.3009   0.0794     C
C       0.4284   0.4491   0.6706     C
C       0.4284   0.5794   0.8009     C
C       0.4284   0.6706   0.4491     C
C       0.4284   0.8009   0.5794     C
C       0.4284   0.9491   0.1706     C
Zr     0.43716    0.375    0.875    Zr
Zr     0.43716    0.875    0.375    Zr
H       0.4394   0.0114    0.606     H
H       0.4394    0.106   0.5114     H
H       0.4394    0.144   0.7386     H
H       0.4394   0.2386    0.644     H
H       0.4394   0.5114    0.106     H
H       0.4394    0.606   0.0114     H
H       0.4394    0.644   0.2386     H
H       0.4394   0.7386    0.144     H
O      0.44066   0.0878   0.3585     O
O      0.44066   0.1622   0.8915     O
O      0.44066   0.3585   0.0878     O
O      0.44066   0.3915   0.6622     O
O      0.44066   0.5878   0.8585     O
O      0.44066   0.6622   0.3915     O
O      0.44066   0.8585   0.5878     O
O      0.44066   0.8915   0.1622     O
C      0.44588  0.09959  0.44588     C
C      0.44588  0.15041  0.80412     C
C      0.44588  0.30412  0.65041     C
C      0.44588  0.44588  0.09959     C
C      0.44588  0.59959  0.94588     C
C      0.44588  0.65041  0.30412     C
C      0.44588  0.80412  0.15041     C
C      0.44588  0.94588  0.59959     C
H       0.4482   0.0198   0.3842     H
H       0.4482   0.2302   0.8658     H
H       0.4482   0.3658   0.7302     H
H       0.4482   0.3842   0.0198     H
H       0.4482   0.5198   0.8842     H
H       0.4482   0.7302   0.3658     H
H       0.4482   0.8658   0.2302     H
H       0.4482   0.8842   0.5198     H
C       0.4491   0.0794   0.3216     C
C       0.4491   0.1706   0.9284     C
C       0.4491   0.3216   0.0794     C
C       0.4491   0.4284   0.6706     C
C       0.4491   0.5794   0.8216     C
C       0.4491   0.6706   0.4284     C
C       0.4491   0.8216   0.5794     C
C       0.4491   0.9284   0.1706     C
C      0.45385  0.29615  0.87224     C
C      0.45385  0.37224  0.79615     C
C      0.45385  0.37776  0.95385     C
C      0.45385  0.45385  0.87776     C
C      0.45385  0.79615  0.37224     C
C      0.45385  0.87224  0.29615     C
C      0.45385  0.87776  0.45385     C
C      0.45385  0.95385  0.37776     C
C      0.46225   0.0049    0.608     C
C      0.46225    0.108   0.5049     C
C      0.46225    0.142   0.7451     C
C      0.46225   0.2451    0.642     C
C      0.46225   0.5049    0.108     C
C      0.46225    0.608   0.0049     C
C      0.46225    0.642   0.2451     C
C      0.46225   0.7451    0.142     C
O      0.46408  0.32623  0.87457     O
O      0.46408  0.37457  0.82623     O
O      0.46408  0.37543  0.92377     O
O      0.46408  0.42377  0.87543     O
O      0.46408  0.82623  0.37457     O
O      0.46408  0.87457  0.32623     O
O      0.46408  0.87543  0.42377     O
O      0.46408  0.92377  0.37543     O
C      0.47111  0.01352  0.38629     C
C      0.47111  0.23648  0.86371     C
C      0.47111  0.36371  0.73648     C
C      0.47111  0.38629  0.01352     C
C      0.47111  0.51352  0.88629     C
C      0.47111  0.73648  0.36371     C
C      0.47111  0.86371  0.23648     C
C      0.47111  0.88629  0.51352     C
C       0.4712  0.10518   0.4712     C
C       0.4712  0.14482   0.7788     C
C       0.4712   0.2788  0.64482     C
C       0.4712   0.4712  0.10518     C
C       0.4712  0.60518   0.9712     C
C       0.4712  0.64482   0.2788     C
C       0.4712   0.7788  0.14482     C
C       0.4712   0.9712  0.60518     C
C      0.48016  0.26984  0.86645     C
C      0.48016  0.36645  0.76984     C
C      0.48016  0.38355  0.98016     C
C      0.48016  0.48016  0.88355     C
C      0.48016  0.76984  0.36645     C
C      0.48016  0.86645  0.26984     C
C      0.48016  0.88355  0.48016     C
C      0.48016  0.98016  0.38355     C
H       0.4802   0.0518   0.6158     H
H       0.4802   0.1158   0.5518     H
H       0.4802   0.1342   0.6982     H
H       0.4802   0.1982   0.6342     H
H       0.4802   0.5518   0.1158     H
H       0.4802   0.6158   0.0518     H
H       0.4802   0.6342   0.1982     H
H       0.4802   0.6982   0.1342     H
C      0.48648  0.02889  0.61371     C
C      0.48648  0.11371  0.52889     C
C      0.48648  0.13629  0.72111     C
C      0.48648  0.22111  0.63629     C
C      0.48648  0.52889  0.11371     C
C      0.48648  0.61371  0.02889     C
C      0.48648  0.63629  0.22111     C
C      0.48648  0.72111  0.13629     C
H       0.4886   0.0606    0.394     H
H       0.4886   0.1894    0.856     H
H       0.4886    0.356   0.6894     H
H       0.4886    0.394   0.0606     H
H       0.4886   0.5606    0.894     H
H       0.4886   0.6894    0.356     H
H       0.4886    0.856   0.1894     H
H       0.4886    0.894   0.5606     H
C       0.4951  0.03775    0.392     C
C       0.4951  0.21225    0.858     C
C       0.4951    0.358  0.71225     C
C       0.4951    0.392  0.03775     C
C       0.4951  0.53775    0.892     C
C       0.4951  0.71225    0.358     C
C       0.4951    0.858  0.21225     C
C       0.4951    0.892  0.53775     C
C       0.5049    0.108  0.46225     C
C       0.5049    0.142  0.78775     C
C       0.5049  0.28775    0.642     C
C       0.5049  0.46225    0.108     C
C       0.5049    0.608  0.96225     C
C       0.5049    0.642  0.28775     C
C       0.5049  0.78775    0.142     C
C       0.5049  0.96225    0.608     C
H       0.5114    0.106   0.4394     H
H       0.5114    0.144   0.8106     H
H       0.5114   0.3106    0.644     H
H       0.5114   0.4394    0.106     H
H       0.5114    0.606   0.9394     H
H       0.5114    0.644   0.3106     H
H       0.5114   0.8106    0.144     H
H       0.5114   0.9394    0.606     H
C      0.51352  0.27889  0.86371     C
C      0.51352  0.36371  0.77889     C
C      0.51352  0.38629  0.97111     C
C      0.51352  0.47111  0.88629     C
C      0.51352  0.77889  0.36371     C
C      0.51352  0.86371  0.27889     C
C      0.51352  0.88629  0.47111     C
C      0.51352  0.97111  0.38629     C
H       0.5198   0.3018   0.8658     H
H       0.5198   0.3658   0.8018     H
H       0.5198   0.3842   0.9482     H
H       0.5198   0.4482   0.8842     H
H       0.5198   0.8018   0.3658     H
H       0.5198   0.8658   0.3018     H
H       0.5198   0.8842   0.4482     H
H       0.5198   0.9482   0.3842     H
C      0.51984  0.01984  0.61645     C
C      0.51984  0.11645  0.51984     C
C      0.51984  0.13355  0.73016     C
C      0.51984  0.23016  0.63355     C
C      0.51984  0.51984  0.11645     C
C      0.51984  0.61645  0.01984     C
C      0.51984  0.63355  0.23016     C
C      0.51984  0.73016  0.13355     C
C       0.5288   0.0288  0.39482     C
C       0.5288   0.2212  0.85518     C
C       0.5288  0.35518   0.7212     C
C       0.5288  0.39482   0.0288     C
C       0.5288   0.5288  0.89482     C
C       0.5288   0.7212  0.35518     C
C       0.5288  0.85518   0.2212     C
C       0.5288  0.89482   0.5288     C
C      0.52889  0.11371  0.48648     C
C      0.52889  0.13629  0.76352     C
C      0.52889  0.26352  0.63629     C
C      0.52889  0.48648  0.11371     C
C      0.52889  0.61371  0.98648     C
C      0.52889  0.63629  0.26352     C
C      0.52889  0.76352  0.13629     C
C      0.52889  0.98648  0.61371     C
O      0.53592  0.07623  0.62457     O
O      0.53592  0.12457  0.57623     O
O      0.53592  0.12543  0.67377     O
O      0.53592  0.17377  0.62543     O
O      0.53592  0.57623  0.12457     O
O      0.53592  0.62457  0.07623     O
O      0.53592  0.62543  0.17377     O
O      0.53592  0.67377  0.12543     O
C      0.53775   0.2549    0.858     C
C      0.53775    0.358   0.7549     C
C      0.53775    0.392   0.9951     C
C      0.53775   0.4951    0.892     C
C      0.53775   0.7549    0.358     C
C      0.53775    0.858   0.2549     C
C      0.53775    0.892   0.4951     C
C      0.53775   0.9951    0.392     C
C      0.54615  0.04615  0.62224     C
C      0.54615  0.12224  0.54615     C
C      0.54615  0.12776  0.70385     C
C      0.54615  0.20385  0.62776     C
C      0.54615  0.54615  0.12224     C
C      0.54615  0.62224  0.04615     C
C      0.54615  0.62776  0.20385     C
C      0.54615  0.70385  0.12776     C
C       0.5509   0.0716   0.8294     C
C       0.5509   0.1784   0.4206     C
C       0.5509   0.3294   0.5716     C
C       0.5509   0.4206   0.1784     C
C       0.5509   0.5716   0.3294     C
C       0.5509   0.6784   0.9206     C
C       0.5509   0.8294   0.0716     C
C       0.5509   0.9206   0.6784     C
H       0.5518   0.1158   0.4802     H
H       0.5518   0.1342   0.7698     H
H       0.5518   0.2698   0.6342     H
H       0.5518   0.4802   0.1158     H
H       0.5518   0.6158   0.9802     H
H       0.5518   0.6342   0.2698     H
H       0.5518   0.7698   0.1342     H
H       0.5518   0.9802   0.6158     H
C      0.55412  0.05412  0.40041     C
C      0.55412  0.19588  0.84959     C
C      0.55412  0.34959  0.69588     C
C      0.55412  0.40041  0.05412     C
C      0.55412  0.55412  0.90041     C
C      0.55412  0.69588  0.34959     C
C      0.55412  0.84959  0.19588     C
C      0.55412  0.90041  0.55412     C
O      0.55934   0.1085   0.8378     O
O      0.55934   0.1415   0.4122     O
O      0.55934   0.3378   0.6085     O
O      0.55934   0.4122   0.1415     O
O      0.55934   0.6085   0.3378     O
O      0.55934   0.6415   0.9122     O
O      0.55934   0.8378   0.1085     O
O      0.55934   0.9122   0.6415     O
H       0.5606   0.2614    0.856     H
H       0.5606    0.356   0.7614     H
H       0.5606    0.394   0.9886     H
H       0.5606   0.4886    0.894     H
H       0.5606   0.7614    0.356     H
H       0.5606    0.856   0.2614     H
H       0.5606    0.894   0.4886     H
H       0.5606   0.9886    0.394     H
Zr     0.56284    0.125    0.625    Zr
Zr     0.56284    0.625    0.125    Zr
C       0.5716   0.0509   0.8294     C
C       0.5716   0.1991   0.4206     C
C       0.5716   0.3294   0.5509     C
C       0.5716   0.4206   0.1991     C
C       0.5716   0.5509   0.3294     C
C       0.5716   0.6991   0.9206     C
C       0.5716   0.8294   0.0509     C
C       0.5716   0.9206   0.6991     C
C      0.57495  0.07495  0.40477     C
C      0.57495  0.17505  0.84523     C
C      0.57495  0.34523  0.67505     C
C      0.57495  0.40477  0.07495     C
C      0.57495  0.57495  0.90477     C
C      0.57495  0.67505  0.34523     C
C      0.57495  0.84523  0.17505     C
C      0.57495  0.90477  0.57495     C
O      0.57623  0.03592  0.62457     O
O      0.57623  0.12457  0.53592     O
O      0.57623  0.12543  0.71408     O
O      0.57623  0.21408  0.62543     O
O      0.57623  0.53592  0.12457     O
O      0.57623  0.62457  0.03592     O
O      0.57623  0.62543  0.21408     O
O      0.57623  0.71408  0.12543     O
C       0.5794   0.3009   0.9284     C
C       0.5794   0.3216   0.9491     C
C       0.5794   0.4284   0.8009     C
C       0.5794   0.4491   0.8216     C
C       0.5794   0.8009   0.4284     C
C       0.5794   0.8216   0.4491     C
C       0.5794   0.9284   0.3009     C
C       0.5794   0.9491   0.3216     C
O       0.5878  0.30934   0.8915     O
O       0.5878   0.3585  0.94066     O
O       0.5878   0.3915  0.80934     O
O       0.5878  0.44066   0.8585     O
O       0.5878  0.80934   0.3915     O
O       0.5878   0.8585  0.44066     O
O       0.5878   0.8915  0.30934     O
O       0.5878  0.94066   0.3585     O
C      0.59033    0.342  0.88342     C
C      0.59033  0.36658    0.908     C
C      0.59033  0.38342    0.842     C
C      0.59033    0.408  0.86658     C
C      0.59033    0.842  0.38342     C
C      0.59033  0.86658    0.408     C
C      0.59033  0.88342    0.342     C
C      0.59033    0.908  0.36658     C
C        0.592  0.11658  0.84033     C
C        0.592  0.13342  0.40967     C
C        0.592  0.34033  0.61658     C
C        0.592  0.40967  0.13342     C
C        0.592  0.61658  0.34033     C
C        0.592  0.63342  0.90967     C
C        0.592  0.84033  0.11658     C
C        0.592  0.90967  0.63342     C
C      0.59262  0.35029  0.85029     C
C      0.59262  0.39971  0.89971     C
C      0.59262  0.85029  0.35029     C
C      0.59262  0.89971  0.39971     C
O      0.59289  0.09289  0.65711     O
O      0.59289  0.15711  0.59289     O
O      0.59289  0.59289  0.15711     O
O      0.59289  0.65711  0.09289     O
C      0.59523  0.32495  0.82495     C
C      0.59523  0.42505  0.92505     C
C      0.59523  0.82495  0.32495     C
C      0.59523  0.92505  0.42505     C
O      0.59552  0.09552  0.59552     O
O      0.59552  0.15448  0.65448     O
O      0.59552  0.59552  0.09552     O
O      0.59552  0.65448  0.15448     O
C      0.59959  0.30412  0.80412     C
C      0.59959  0.44588  0.94588     C
C      0.59959  0.80412  0.30412     C
C      0.59959  0.94588  0.44588     C
C      0.60029  0.10029  0.40738     C
C      0.60029  0.14971  0.84262     C
C      0.60029  0.34262  0.64971     C
C      0.60029  0.40738  0.10029     C
C      0.60029  0.60029  0.90738     C
C      0.60029  0.64971  0.34262     C
C      0.60029  0.84262  0.14971     C
C      0.60029  0.90738  0.60029     C
C      0.60518   0.2788   0.7788     C
C      0.60518   0.4712   0.9712     C
C      0.60518   0.7788   0.2788     C
C      0.60518   0.9712   0.4712     C
H        0.606   0.0114   0.4394     H
H        0.606   0.2386   0.8106     H
H        0.606   0.3106   0.7386     H
H        0.606   0.4394   0.0114     H
H        0.606   0.5114   0.9394     H
H        0.606   0.7386   0.3106     H
H        0.606   0.8106   0.2386     H
H        0.606   0.9394   0.5114     H
C        0.608   0.0049  0.46225     C
C        0.608   0.2451  0.78775     C
C        0.608  0.28775   0.7451     C
C        0.608  0.46225   0.0049     C
C        0.608   0.5049  0.96225     C
C        0.608   0.7451  0.28775     C
C        0.608  0.78775   0.2451     C
C        0.608  0.96225   0.5049     C
O       0.6085  0.05934   0.8378     O
O       0.6085  0.19066   0.4122     O
O       0.6085   0.3378  0.55934     O
O       0.6085   0.4122  0.19066     O
O       0.6085  0.55934   0.3378     O
O       0.6085  0.69066   0.9122     O
O       0.6085   0.8378  0.05934     O
O       0.6085   0.9122  0.69066     O
C      0.61371  0.02889  0.48648     C
C      0.61371  0.22111  0.76352     C
C      0.61371  0.26352  0.72111     C
C      0.61371  0.48648  0.02889     C
C      0.61371  0.52889  0.98648     C
C      0.61371  0.72111  0.26352     C
C      0.61371  0.76352  0.22111     C
C      0.61371  0.98648  0.52889     C
H       0.6158   0.0518   0.4802     H
H       0.6158   0.1982   0.7698     H
H       0.6158   0.2698   0.6982     H
H       0.6158   0.4802   0.0518     H
H       0.6158   0.5518   0.9802     H
H       0.6158   0.6982   0.2698     H
H       0.6158   0.7698   0.1982     H
H       0.6158   0.9802   0.5518     H
C      0.61645  0.01984  0.51984     C
C      0.61645  0.23016  0.73016     C
C      0.61645  0.51984  0.01984     C
C      0.61645  0.73016  0.23016     C
C      0.61658    0.092  0.84033     C
C      0.61658    0.158  0.40967     C
C      0.61658  0.34033    0.592     C
C      0.61658  0.40967    0.158     C
C      0.61658    0.592  0.34033     C
C      0.61658    0.658  0.90967     C
C      0.61658  0.84033    0.092     C
C      0.61658  0.90967    0.658     C
C      0.62224  0.04615  0.54615     C
C      0.62224  0.20385  0.70385     C
C      0.62224  0.54615  0.04615     C
C      0.62224  0.70385  0.20385     C
O      0.62457  0.03592  0.57623     O
O      0.62457  0.07623  0.53592     O
O      0.62457  0.17377  0.71408     O
O      0.62457  0.21408  0.67377     O
O      0.62457  0.53592  0.07623     O
O      0.62457  0.57623  0.03592     O
O      0.62457  0.67377  0.21408     O
O      0.62457  0.71408  0.17377     O
Zr       0.625  0.06284    0.625    Zr
Zr       0.625    0.125  0.56284    Zr
Zr       0.625    0.125  0.68716    Zr
Zr       0.625  0.18716    0.625    Zr
Zr       0.625  0.56284    0.125    Zr
Zr       0.625    0.625  0.06284    Zr
Zr       0.625    0.625  0.18716    Zr
Zr       0.625  0.68716    0.125    Zr
O      0.62543  0.03592  0.67377     O
O      0.62543  0.07623  0.71408     O
O      0.62543  0.17377  0.53592     O
O      0.62543  0.21408  0.57623     O
O      0.62543  0.53592  0.17377     O
O      0.62543  0.57623  0.21408     O
O      0.62543  0.67377  0.03592     O
O      0.62543  0.71408  0.07623     O
C      0.62776  0.04615  0.70385     C
C      0.62776  0.20385  0.54615     C
C      0.62776  0.54615  0.20385     C
C      0.62776  0.70385  0.04615     C
C      0.63342    0.092  0.40967     C
C      0.63342    0.158  0.84033     C
C      0.63342  0.34033    0.658     C
C      0.63342  0.40967    0.092     C
C      0.63342    0.592  0.90967     C
C      0.63342    0.658  0.34033     C
C      0.63342  0.84033    0.158     C
C      0.63342  0.90967    0.592     C
C      0.63355  0.01984  0.73016     C
C      0.63355  0.23016  0.51984     C
C      0.63355  0.51984  0.23016     C
C      0.63355  0.73016  0.01984     C
H       0.6342   0.0518   0.7698     H
H       0.6342   0.1982   0.4802     H
H       0.6342   0.2698   0.5518     H
H       0.6342   0.4802   0.1982     H
H       0.6342   0.5518   0.2698     H
H       0.6342   0.6982   0.9802     H
H       0.6342   0.7698   0.0518     H
H       0.6342   0.9802   0.6982     H
C      0.63629  0.02889  0.76352     C
C      0.63629  0.22111  0.48648     C
C      0.63629  0.26352  0.52889     C
C      0.63629  0.48648  0.22111     C
C      0.63629  0.52889  0.26352     C
C      0.63629  0.72111  0.98648     C
C      0.63629  0.76352  0.02889     C
C      0.63629  0.98648  0.72111     C
O       0.6415  0.05934   0.4122     O
O       0.6415  0.19066   0.8378     O
O       0.6415   0.3378  0.69066     O
O       0.6415   0.4122  0.05934     O
O       0.6415  0.55934   0.9122     O
O       0.6415  0.69066   0.3378     O
O       0.6415   0.8378  0.19066     O
O       0.6415   0.9122  0.55934     O
C        0.642   0.0049  0.78775     C
C        0.642   0.2451  0.46225     C
C        0.642  0.28775   0.5049     C
C        0.642  0.46225   0.2451     C
C        0.642   0.5049  0.28775     C
C        0.642   0.7451  0.96225     C
C        0.642  0.78775   0.0049     C
C        0.642  0.96225   0.7451     C
H        0.644   0.0114   0.8106     H
H        0.644   0.2386   0.4394     H
H        0.644   0.3106   0.5114     H
H        0.644   0.4394   0.2386     H
H        0.644   0.5114   0.3106     H
H        0.644   0.7386   0.9394     H
H        0.644   0.8106   0.0114     H
H        0.644   0.9394   0.7386     H
C      0.64482   0.2788   0.4712     C
C      0.64482   0.4712   0.2788     C
C      0.64482   0.7788   0.9712     C
C      0.64482   0.9712   0.7788     C
C      0.64971  0.10029  0.84262     C
C      0.64971  0.14971  0.40738     C
C      0.64971  0.34262  0.60029     C
C      0.64971  0.40738  0.14971     C
C      0.64971  0.60029  0.34262     C
C      0.64971  0.64971  0.90738     C
C      0.64971  0.84262  0.10029     C
C      0.64971  0.90738  0.64971     C
C      0.65041  0.30412  0.44588     C
C      0.65041  0.44588  0.30412     C
C      0.65041  0.80412  0.94588     C
C      0.65041  0.94588  0.80412     C
O      0.65448  0.09552  0.65448     O
O      0.65448  0.15448  0.59552     O
O      0.65448  0.59552  0.15448     O
O      0.65448  0.65448  0.09552     O
C      0.65477  0.32495  0.42505     C
C      0.65477  0.42505  0.32495     C
C      0.65477  0.82495  0.92505     C
C      0.65477  0.92505  0.82495     C
O      0.65711  0.09289  0.59289     O
O      0.65711  0.15711  0.65711     O
O      0.65711  0.59289  0.09289     O
O      0.65711  0.65711  0.15711     O
C      0.65738  0.35029  0.39971     C
C      0.65738  0.39971  0.35029     C
C      0.65738  0.85029  0.89971     C
C      0.65738  0.89971  0.85029     C
C        0.658  0.11658  0.40967     C
C        0.658  0.13342  0.84033     C
C        0.658  0.34033  0.63342     C
C        0.658  0.40967  0.11658     C
C        0.658  0.61658  0.90967     C
C        0.658  0.63342  0.34033     C
C        0.658  0.84033  0.13342     C
C        0.658  0.90967  0.61658     C
C      0.65967    0.342  0.36658     C
C      0.65967  0.36658    0.342     C
C      0.65967  0.38342    0.408     C
C      0.65967    0.408  0.38342     C
C      0.65967    0.842  0.86658     C
C      0.65967  0.86658    0.842     C
C      0.65967  0.88342    0.908     C
C      0.65967    0.908  0.88342     C
O       0.6622  0.30934   0.3585     O
O       0.6622   0.3585  0.30934     O
O       0.6622   0.3915  0.44066     O
O       0.6622  0.44066   0.3915     O
O       0.6622  0.80934   0.8585     O
O       0.6622   0.8585  0.80934     O
O       0.6622   0.8915  0.94066     O
O       0.6622  0.94066   0.8915     O
C       0.6706   0.3009   0.3216     C
C       0.6706   0.3216   0.3009     C
C       0.6706   0.4284   0.4491     C
C       0.6706   0.4491   0.4284     C
C       0.6706   0.8009   0.8216     C
C       0.6706   0.8216   0.8009     C
C       0.6706   0.9284   0.9491     C
C       0.6706   0.9491   0.9284     C
O      0.67377  0.03592  0.62543     O
O      0.67377  0.12457  0.71408     O
O      0.67377  0.12543  0.53592     O
O      0.67377  0.21408  0.62457     O
O      0.67377  0.53592  0.12543     O
O      0.67377  0.62457  0.21408     O
O      0.67377  0.62543  0.03592     O
O      0.67377  0.71408  0.12457     O
C      0.67505  0.07495  0.84523     C
C      0.67505  0.17505  0.40477     C
C      0.67505  0.34523  0.57495     C
C      0.67505  0.40477  0.17505     C
C      0.67505  0.57495  0.34523     C
C      0.67505  0.67505  0.90477     C
C      0.67505  0.84523  0.07495     C
C      0.67505  0.90477  0.67505     C
C       0.6784   0.0509   0.4206     C
C       0.6784   0.1991   0.8294     C
C       0.6784   0.3294   0.6991     C
C       0.6784   0.4206   0.0509     C
C       0.6784   0.5509   0.9206     C
C       0.6784   0.6991   0.3294     C
C       0.6784   0.8294   0.1991     C
C       0.6784   0.9206   0.5509     C
Zr     0.68716    0.125    0.625    Zr
Zr     0.68716    0.625    0.125    Zr
H       0.6894   0.2614    0.394     H
H       0.6894    0.356   0.4886     H
H       0.6894    0.394   0.2614     H
H       0.6894   0.4886    0.356     H
H       0.6894   0.7614    0.894     H
H       0.6894    0.856   0.9886     H
H       0.6894    0.894   0.7614     H
H       0.6894   0.9886    0.856     H
O      0.69066   0.1085   0.4122     O
O      0.69066   0.1415   0.8378     O
O      0.69066   0.3378   0.6415     O
O      0.69066   0.4122   0.1085     O
O      0.69066   0.6085   0.9122     O
O      0.69066   0.6415   0.3378     O
O      0.69066   0.8378   0.1415     O
O      0.69066   0.9122   0.6085     O
C      0.69588  0.05412  0.84959     C
C      0.69588  0.19588  0.40041     C
C      0.69588  0.34959  0.55412     C
C      0.69588  0.40041  0.19588     C
C      0.69588  0.55412  0.34959     C
C      0.69588  0.69588  0.90041     C
C      0.69588  0.84959  0.05412     C
C      0.69588  0.90041  0.69588     C
H       0.6982   0.1158   0.7698     H
H       0.6982   0.1342   0.4802     H
H       0.6982   0.2698   0.6158     H
H       0.6982   0.4802   0.1342     H
H       0.6982   0.6158   0.2698     H
H       0.6982   0.6342   0.9802     H
H       0.6982   0.7698   0.1158     H
H       0.6982   0.9802   0.6342     H
C       0.6991   0.0716   0.4206     C
C       0.6991   0.1784   0.8294     C
C       0.6991   0.3294   0.6784     C
C       0.6991   0.4206   0.0716     C
C       0.6991   0.5716   0.9206     C
C       0.6991   0.6784   0.3294     C
C       0.6991   0.8294   0.1784     C
C       0.6991   0.9206   0.5716     C
C      0.70385  0.04615  0.62776     C
C      0.70385  0.12224  0.70385     C
C      0.70385  0.12776  0.54615     C
C      0.70385  0.20385  0.62224     C
C      0.70385  0.54615  0.12776     C
C      0.70385  0.62224  0.20385     C
C      0.70385  0.62776  0.04615     C
C      0.70385  0.70385  0.12224     C
C      0.71225   0.2549    0.392     C
C      0.71225    0.358   0.4951     C
C      0.71225    0.392   0.2549     C
C      0.71225   0.4951    0.358     C
C      0.71225   0.7549    0.892     C
C      0.71225    0.858   0.9951     C
C      0.71225    0.892   0.7549     C
C      0.71225   0.9951    0.858     C
O      0.71408  0.07623  0.62543     O
O      0.71408  0.12457  0.67377     O
O      0.71408  0.12543  0.57623     O
O      0.71408  0.17377  0.62457     O
O      0.71408  0.57623  0.12543     O
O      0.71408  0.62457  0.17377     O
O      0.71408  0.62543  0.07623     O
O      0.71408  0.67377  0.12457     O
C      0.72111  0.11371  0.76352     C
C      0.72111  0.13629  0.48648     C
C      0.72111  0.26352  0.61371     C
C      0.72111  0.48648  0.13629     C
C      0.72111  0.61371  0.26352     C
C      0.72111  0.63629  0.98648     C
C      0.72111  0.76352  0.11371     C
C      0.72111  0.98648  0.63629     C
C       0.7212   0.0288  0.85518     C
C       0.7212   0.2212  0.39482     C
C       0.7212  0.35518   0.5288     C
C       0.7212  0.39482   0.2212     C
C       0.7212   0.5288  0.35518     C
C       0.7212   0.7212  0.89482     C
C       0.7212  0.85518   0.0288     C
C       0.7212  0.89482   0.7212     C
C      0.73016  0.01984  0.63355     C
C      0.73016  0.11645  0.73016     C
C      0.73016  0.13355  0.51984     C
C      0.73016  0.23016  0.61645     C
C      0.73016  0.51984  0.13355     C
C      0.73016  0.61645  0.23016     C
C      0.73016  0.63355  0.01984     C
C      0.73016  0.73016  0.11645     C
H       0.7302   0.3018   0.3842     H
H       0.7302   0.3658   0.4482     H
H       0.7302   0.3842   0.3018     H
H       0.7302   0.4482   0.3658     H
H       0.7302   0.8018   0.8842     H
H       0.7302   0.8658   0.9482     H
H       0.7302   0.8842   0.8018     H
H       0.7302   0.9482   0.8658     H
C      0.73648  0.27889  0.38629     C
C      0.73648  0.36371  0.47111     C
C      0.73648  0.38629  0.27889     C
C      0.73648  0.47111  0.36371     C
C      0.73648  0.77889  0.88629     C
C      0.73648  0.86371  0.97111     C
C      0.73648  0.88629  0.77889     C
C      0.73648  0.97111  0.86371     C
H       0.7386    0.106   0.8106     H
H       0.7386    0.144   0.4394     H
H       0.7386   0.3106    0.606     H
H       0.7386   0.4394    0.144     H
H       0.7386    0.606   0.3106     H
H       0.7386    0.644   0.9394     H
H       0.7386   0.8106    0.106     H
H       0.7386   0.9394    0.644     H
C       0.7451    0.108  0.78775     C
C       0.7451    0.142  0.46225     C
C       0.7451  0.28775    0.608     C
C       0.7451  0.46225    0.142     C
C       0.7451    0.608  0.28775     C
C       0.7451    0.642  0.96225     C
C       0.7451  0.78775    0.108     C
C       0.7451  0.96225    0.642     C
C       0.7549  0.03775    0.858     C
C       0.7549  0.21225    0.392     C
C       0.7549    0.358  0.53775     C
C       0.7549    0.392  0.21225     C
C       0.7549  0.53775    0.358     C
C       0.7549  0.71225    0.892     C
C       0.7549    0.858  0.03775     C
C       0.7549    0.892  0.71225     C
H       0.7614   0.0606    0.856     H
H       0.7614   0.1894    0.394     H
H       0.7614    0.356   0.5606     H
H       0.7614    0.394   0.1894     H
H       0.7614   0.5606    0.356     H
H       0.7614   0.6894    0.894     H
H       0.7614    0.856   0.0606     H
H       0.7614    0.894   0.6894     H
C      0.76352  0.02889  0.63629     C
C      0.76352  0.11371  0.72111     C
C      0.76352  0.13629  0.52889     C
C      0.76352  0.22111  0.61371     C
C      0.76352  0.52889  0.13629     C
C      0.76352  0.61371  0.22111     C
C      0.76352  0.63629  0.02889     C
C      0.76352  0.72111  0.11371     C
H       0.7698   0.0518   0.6342     H
H       0.7698   0.1158   0.6982     H
H       0.7698   0.1342   0.5518     H
H       0.7698   0.1982   0.6158     H
H       0.7698   0.5518   0.1342     H
H       0.7698   0.6158   0.1982     H
H       0.7698   0.6342   0.0518     H
H       0.7698   0.6982   0.1158     H
C      0.76984  0.26984  0.38355     C
C      0.76984  0.36645  0.48016     C
C      0.76984  0.38355  0.26984     C
C      0.76984  0.48016  0.36645     C
C      0.76984  0.76984  0.88355     C
C      0.76984  0.86645  0.98016     C
C      0.76984  0.88355  0.76984     C
C      0.76984  0.98016  0.86645     C
C       0.7788  0.10518   0.7788     C
C       0.7788  0.14482   0.4712     C
C       0.7788   0.2788  0.60518     C
C       0.7788   0.4712  0.14482     C
C       0.7788  0.60518   0.2788     C
C       0.7788  0.64482   0.9712     C
C       0.7788   0.7788  0.10518     C
C       0.7788   0.9712  0.64482     C
C      0.77889  0.01352  0.86371     C
C      0.77889  0.23648  0.38629     C
C      0.77889  0.36371  0.51352     C
C      0.77889  0.38629  0.23648     C
C      0.77889  0.51352  0.36371     C
C      0.77889  0.73648  0.88629     C
C      0.77889  0.86371  0.01352     C
C      0.77889  0.88629  0.73648     C
O      0.78592  0.32623  0.37543     O
O      0.78592  0.37457  0.42377     O
O      0.78592  0.37543  0.32623     O
O      0.78592  0.42377  0.37457     O
O      0.78592  0.82623  0.87543     O
O      0.78592  0.87457  0.92377     O
O      0.78592  0.87543  0.82623     O
O      0.78592  0.92377  0.87457     O
C      0.78775   0.0049    0.642     C
C      0.78775    0.108   0.7451     C
C      0.78775    0.142   0.5049     C
C      0.78775   0.2451    0.608     C
C      0.78775   0.5049    0.142     C
C      0.78775    0.608   0.2451     C
C      0.78775    0.642   0.0049     C
C      0.78775   0.7451    0.108     C
C      0.79615  0.29615  0.37776     C
C      0.79615  0.37224  0.45385     C
C      0.79615  0.37776  0.29615     C
C      0.79615  0.45385  0.37224     C
C      0.79615  0.79615  0.87776     C
C      0.79615  0.87224  0.95385     C
C      0.79615  0.87776  0.79615     C
C      0.79615  0.95385  0.87224     C
C       0.8009   0.0794   0.9284     C
C       0.8009   0.1706   0.3216     C
C       0.8009   0.3216   0.1706     C
C       0.8009   0.4284   0.5794     C
C       0.8009   0.5794   0.4284     C
C       0.8009   0.6706   0.8216     C
C       0.8009   0.8216   0.6706     C
C       0.8009   0.9284   0.0794     C
H       0.8018   0.0198   0.8658     H
H       0.8018   0.2302   0.3842     H
H       0.8018   0.3658   0.5198     H
H       0.8018   0.3842   0.2302     H
H       0.8018   0.5198   0.3658     H
H       0.8018   0.7302   0.8842     H
H       0.8018   0.8658   0.0198     H
H       0.8018   0.8842   0.7302     H
C      0.80412  0.09959  0.80412     C
C      0.80412  0.15041  0.44588     C
C      0.80412  0.30412  0.59959     C
C      0.80412  0.44588  0.15041     C
C      0.80412  0.59959  0.30412     C
C      0.80412  0.65041  0.94588     C
C      0.80412  0.80412  0.09959     C
C      0.80412  0.94588  0.65041     C
O      0.80934   0.0878   0.8915     O
O      0.80934   0.1622   0.3585     O
O      0.80934   0.3585   0.1622     O
O      0.80934   0.3915   0.5878     O
O      0.80934   0.5878   0.3915     O
O      0.80934   0.6622   0.8585     O
O      0.80934   0.8585   0.6622     O
O      0.80934   0.8915   0.0878     O
H       0.8106   0.0114    0.644     H
H       0.8106    0.106   0.7386     H
H       0.8106    0.144   0.5114     H
H       0.8106   0.2386    0.606     H
H       0.8106   0.5114    0.144     H
H       0.8106    0.606   0.2386     H
H       0.8106    0.644   0.0114     H
H       0.8106   0.7386    0.106     H
Zr     0.81284    0.375    0.375    Zr
Zr     0.81284    0.875    0.875    Zr
C       0.8216   0.0794   0.9491     C
C       0.8216   0.1706   0.3009     C
C       0.8216   0.3009   0.1706     C
C       0.8216   0.4491   0.5794     C
C       0.8216   0.5794   0.4491     C
C       0.8216   0.6706   0.8009     C
C       0.8216   0.8009   0.6706     C
C       0.8216   0.9491   0.0794     C
C      0.82495  0.09523  0.82495     C
C      0.82495  0.15477  0.42505     C
C      0.82495  0.32495  0.59523     C
C      0.82495  0.42505  0.15477     C
C      0.82495  0.59523  0.32495     C
C      0.82495  0.65477  0.92505     C
C      0.82495  0.82495  0.09523     C
C      0.82495  0.92505  0.65477     C
O      0.82623  0.28592  0.37543     O
O      0.82623  0.37457  0.46408     O
O      0.82623  0.37543  0.28592     O
O      0.82623  0.46408  0.37457     O
O      0.82623  0.78592  0.87543     O
O      0.82623  0.87457  0.96408     O
O      0.82623  0.87543  0.78592     O
O      0.82623  0.96408  0.87457     O
C       0.8294   0.0509   0.5716     C
C       0.8294   0.0716   0.5509     C
C       0.8294   0.1784   0.6991     C
C       0.8294   0.1991   0.6784     C
C       0.8294   0.5509   0.0716     C
C       0.8294   0.5716   0.0509     C
C       0.8294   0.6784   0.1991     C
C       0.8294   0.6991   0.1784     C
O       0.8378  0.05934   0.6085     O
O       0.8378   0.1085  0.55934     O
O       0.8378   0.1415  0.69066     O
O       0.8378  0.19066   0.6415     O
O       0.8378  0.55934   0.1085     O
O       0.8378   0.6085  0.05934     O
O       0.8378   0.6415  0.19066     O
O       0.8378  0.69066   0.1415     O
C      0.84033    0.092  0.61658     C
C      0.84033  0.11658    0.592     C
C      0.84033  0.13342    0.658     C
C      0.84033    0.158  0.63342     C
C      0.84033    0.592  0.11658     C
C      0.84033  0.61658    0.092     C
C      0.84033  0.63342    0.158     C
C      0.84033    0.658  0.13342     C
C        0.842  0.09033  0.88342     C
C        0.842  0.15967  0.36658     C
C        0.842  0.36658  0.15967     C
C        0.842  0.38342  0.59033     C
C        0.842  0.59033  0.38342     C
C        0.842  0.65967  0.86658     C
C        0.842  0.86658  0.65967     C
C        0.842  0.88342  0.09033     C
C      0.84262  0.10029  0.64971     C
C      0.84262  0.14971  0.60029     C
C      0.84262  0.60029  0.14971     C
C      0.84262  0.64971  0.10029     C
O      0.84289  0.34289  0.34289     O
O      0.84289  0.40711  0.40711     O
O      0.84289  0.84289  0.84289     O
O      0.84289  0.90711  0.90711     O
C      0.84523  0.07495  0.67505     C
C      0.84523  0.17505  0.57495     C
C      0.84523  0.57495  0.17505     C
C      0.84523  0.67505  0.07495     C
O      0.84552  0.34552  0.40448     O
O      0.84552  0.40448  0.34552     O
O      0.84552  0.84552  0.90448     O
O      0.84552  0.90448  0.84552     O
C      0.84959  0.05412  0.69588     C
C      0.84959  0.19588  0.55412     C
C      0.84959  0.55412  0.19588     C
C      0.84959  0.69588  0.05412     C
C      0.85029  0.09262  0.85029     C
C      0.85029  0.15738  0.39971     C
C      0.85029  0.35029  0.59262     C
C      0.85029  0.39971  0.15738     C
C      0.85029  0.59262  0.35029     C
C      0.85029  0.65738  0.89971     C
C      0.85029  0.85029  0.09262     C
C      0.85029  0.89971  0.65738     C
C      0.85518   0.0288   0.7212     C
C      0.85518   0.2212   0.5288     C
C      0.85518   0.5288   0.2212     C
C      0.85518   0.7212   0.0288     C
H        0.856   0.0606   0.7614     H
H        0.856   0.1894   0.4886     H
H        0.856   0.2614   0.5606     H
H        0.856   0.4886   0.1894     H
H        0.856   0.5606   0.2614     H
H        0.856   0.6894   0.9886     H
H        0.856   0.7614   0.0606     H
H        0.856   0.9886   0.6894     H
C        0.858  0.03775   0.7549     C
C        0.858  0.21225   0.4951     C
C        0.858   0.2549  0.53775     C
C        0.858   0.4951  0.21225     C
C        0.858  0.53775   0.2549     C
C        0.858  0.71225   0.9951     C
C        0.858   0.7549  0.03775     C
C        0.858   0.9951  0.71225     C
O       0.8585   0.0878  0.94066     O
O       0.8585   0.1622  0.30934     O
O       0.8585  0.30934   0.1622     O
O       0.8585  0.44066   0.5878     O
O       0.8585   0.5878  0.44066     O
O       0.8585   0.6622  0.80934     O
O       0.8585  0.80934   0.6622     O
O       0.8585  0.94066   0.0878     O
C      0.86371  0.01352  0.77889     C
C      0.86371  0.23648  0.47111     C
C      0.86371  0.27889  0.51352     C
C      0.86371  0.47111  0.23648     C
C      0.86371  0.51352  0.27889     C
C      0.86371  0.73648  0.97111     C
C      0.86371  0.77889  0.01352     C
C      0.86371  0.97111  0.73648     C
H       0.8658   0.0198   0.8018     H
H       0.8658   0.2302   0.4482     H
H       0.8658   0.3018   0.5198     H
H       0.8658   0.4482   0.2302     H
H       0.8658   0.5198   0.3018     H
H       0.8658   0.7302   0.9482     H
H       0.8658   0.8018   0.0198     H
H       0.8658   0.9482   0.7302     H
C      0.86645  0.26984  0.48016     C
C      0.86645  0.48016  0.26984     C
C      0.86645  0.76984  0.98016     C
C      0.86645  0.98016  0.76984     C
C      0.86658  0.09033    0.908     C
C      0.86658  0.15967    0.342     C
C      0.86658    0.342  0.15967     C
C      0.86658    0.408  0.59033     C
C      0.86658  0.59033    0.408     C
C      0.86658  0.65967    0.842     C
C      0.86658    0.842  0.65967     C
C      0.86658    0.908  0.09033     C
C      0.87224  0.29615  0.45385     C
C      0.87224  0.45385  0.29615     C
C      0.87224  0.79615  0.95385     C
C      0.87224  0.95385  0.79615     C
O      0.87457  0.28592  0.42377     O
O      0.87457  0.32623  0.46408     O
O      0.87457  0.42377  0.28592     O
O      0.87457  0.46408  0.32623     O
O      0.87457  0.78592  0.92377     O
O      0.87457  0.82623  0.96408     O
O      0.87457  0.92377  0.78592     O
O      0.87457  0.96408  0.82623     O
Zr       0.875  0.31284    0.375    Zr
Zr       0.875    0.375  0.31284    Zr
Zr       0.875    0.375  0.43716    Zr
Zr       0.875  0.43716    0.375    Zr
Zr       0.875  0.81284    0.875    Zr
Zr       0.875    0.875  0.81284    Zr
Zr       0.875    0.875  0.93716    Zr
Zr       0.875  0.93716    0.875    Zr
O      0.87543  0.28592  0.32623     O
O      0.87543  0.32623  0.28592     O
O      0.87543  0.42377  0.46408     O
O      0.87543  0.46408  0.42377     O
O      0.87543  0.78592  0.82623     O
O      0.87543  0.82623  0.78592     O
O      0.87543  0.92377  0.96408     O
O      0.87543  0.96408  0.92377     O
C      0.87776  0.29615  0.29615     C
C      0.87776  0.45385  0.45385     C
C      0.87776  0.79615  0.79615     C
C      0.87776  0.95385  0.95385     C
C      0.88342  0.09033    0.842     C
C      0.88342  0.15967    0.408     C
C      0.88342    0.342  0.59033     C
C      0.88342    0.408  0.15967     C
C      0.88342  0.59033    0.342     C
C      0.88342  0.65967    0.908     C
C      0.88342    0.842  0.09033     C
C      0.88342    0.908  0.65967     C
C      0.88355  0.26984  0.26984     C
C      0.88355  0.48016  0.48016     C
C      0.88355  0.76984  0.76984     C
C      0.88355  0.98016  0.98016     C
H       0.8842   0.0198   0.9482     H
H       0.8842   0.2302   0.3018     H
H       0.8842   0.3018   0.2302     H
H       0.8842   0.4482   0.5198     H
H       0.8842   0.5198   0.4482     H
H       0.8842   0.7302   0.8018     H
H       0.8842   0.8018   0.7302     H
H       0.8842   0.9482   0.0198     H
C      0.88629  0.01352  0.97111     C
C      0.88629  0.23648  0.27889     C
C      0.88629  0.27889  0.23648     C
C      0.88629  0.47111  0.51352     C
C      0.88629  0.51352  0.47111     C
C      0.88629  0.73648  0.77889     C
C      0.88629  0.77889  0.73648     C
C      0.88629  0.97111  0.01352     C
O       0.8915   0.0878  0.80934     O
O       0.8915   0.1622  0.44066     O
O       0.8915  0.30934   0.5878     O
O       0.8915  0.44066   0.1622     O
O       0.8915   0.5878  0.30934     O
O       0.8915   0.6622  0.94066     O
O       0.8915  0.80934   0.0878     O
O       0.8915  0.94066   0.6622     O
C        0.892  0.03775   0.9951     C
C        0.892  0.21225   0.2549     C
C        0.892   0.2549  0.21225     C
C        0.892   0.4951  0.53775     C
C        0.892  0.53775   0.4951     C
C        0.892  0.71225   0.7549     C
C        0.892   0.7549  0.71225     C
C        0.892   0.9951  0.03775     C
H        0.894   0.0606   0.9886     H
H        0.894   0.1894   0.2614     H
H        0.894   0.2614   0.1894     H
H        0.894   0.4886   0.5606     H
H        0.894   0.5606   0.4886     H
H        0.894   0.6894   0.7614     H
H        0.894   0.7614   0.6894     H
H        0.894   0.9886   0.0606     H
C      0.89482   0.0288   0.0288     C
C      0.89482   0.2212   0.2212     C
C      0.89482   0.5288   0.5288     C
C      0.89482   0.7212   0.7212     C
C      0.89971  0.09262  0.89971     C
C      0.89971  0.15738  0.35029     C
C      0.89971  0.35029  0.15738     C
C      0.89971  0.39971  0.59262     C
C      0.89971  0.59262  0.39971     C
C      0.89971  0.65738  0.85029     C
C      0.89971  0.85029  0.65738     C
C      0.89971  0.89971  0.09262     C
C      0.90041  0.05412  0.05412     C
C      0.90041  0.19588  0.19588     C
C      0.90041  0.55412  0.55412     C
C      0.90041  0.69588  0.69588     C
O      0.90448  0.34552  0.34552     O
O      0.90448  0.40448  0.40448     O
O      0.90448  0.84552  0.84552     O
O      0.90448  0.90448  0.90448     O
C      0.90477  0.07495  0.07495     C
C      0.90477  0.17505  0.17505     C
C      0.90477  0.57495  0.57495     C
C      0.90477  0.67505  0.67505     C
O      0.90711  0.34289  0.40711     O
O      0.90711  0.40711  0.34289     O
O      0.90711  0.84289  0.90711     O
O      0.90711  0.90711  0.84289     O
C      0.90738  0.10029  0.10029     C
C      0.90738  0.14971  0.14971     C
C      0.90738  0.60029  0.60029     C
C      0.90738  0.64971  0.64971     C
C        0.908  0.09033  0.86658     C
C        0.908  0.15967  0.38342     C
C        0.908  0.36658  0.59033     C
C        0.908  0.38342  0.15967     C
C        0.908  0.59033  0.36658     C
C        0.908  0.65967  0.88342     C
C        0.908  0.86658  0.09033     C
C        0.908  0.88342  0.65967     C
C      0.90967    0.092  0.13342     C
C      0.90967  0.11658    0.158     C
C      0.90967  0.13342    0.092     C
C      0.90967    0.158  0.11658     C
C      0.90967    0.592  0.63342     C
C      0.90967  0.61658    0.658     C
C      0.90967  0.63342    0.592     C
C      0.90967    0.658  0.61658     C
O       0.9122  0.05934   0.1415     O
O       0.9122   0.1085  0.19066     O
O       0.9122   0.1415  0.05934     O
O       0.9122  0.19066   0.1085     O
O       0.9122  0.55934   0.6415     O
O       0.9122   0.6085  0.69066     O
O       0.9122   0.6415  0.55934     O
O       0.9122  0.69066   0.6085     O
C       0.9206   0.0509   0.1784     C
C       0.9206   0.0716   0.1991     C
C       0.9206   0.1784   0.0509     C
C       0.9206   0.1991   0.0716     C
C       0.9206   0.5509   0.6784     C
C       0.9206   0.5716   0.6991     C
C       0.9206   0.6784   0.5509     C
C       0.9206   0.6991   0.5716     C
O      0.92377  0.28592  0.37457     O
O      0.92377  0.37457  0.28592     O
O      0.92377  0.37543  0.46408     O
O      0.92377  0.46408  0.37543     O
O      0.92377  0.78592  0.87457     O
O      0.92377  0.87457  0.78592     O
O      0.92377  0.87543  0.96408     O
O      0.92377  0.96408  0.87543     O
C      0.92505  0.09523  0.92505     C
C      0.92505  0.15477  0.32495     C
C      0.92505  0.32495  0.15477     C
C      0.92505  0.42505  0.59523     C
C      0.92505  0.59523  0.42505     C
C      0.92505  0.65477  0.82495     C
C      0.92505  0.82495  0.65477     C
C      0.92505  0.92505  0.09523     C
C       0.9284   0.0794   0.8009     C
C       0.9284   0.1706   0.4491     C
C       0.9284   0.3009   0.5794     C
C       0.9284   0.4491   0.1706     C
C       0.9284   0.5794   0.3009     C
C       0.9284   0.6706   0.9491     C
C       0.9284   0.8009   0.0794     C
C       0.9284   0.9491   0.6706     C
Zr     0.93716    0.375    0.375    Zr
Zr     0.93716    0.875    0.875    Zr
H       0.9394   0.0114    0.106     H
H       0.9394    0.106   0.0114     H
H       0.9394    0.144   0.2386     H
H       0.9394   0.2386    0.144     H
H       0.9394   0.5114    0.606     H
H       0.9394    0.606   0.5114     H
H       0.9394    0.644   0.7386     H
H       0.9394   0.7386    0.644     H
O      0.94066   0.0878   0.8585     O
O      0.94066   0.1622   0.3915     O
O      0.94066   0.3585   0.5878     O
O      0.94066   0.3915   0.1622     O
O      0.94066   0.5878   0.3585     O
O      0.94066   0.6622   0.8915     O
O      0.94066   0.8585   0.0878     O
O      0.94066   0.8915   0.6622     O
C      0.94588  0.09959  0.94588     C
C      0.94588  0.15041  0.30412     C
C      0.94588  0.30412  0.15041     C
C      0.94588  0.44588  0.59959     C
C      0.94588  0.59959  0.44588     C
C      0.94588  0.65041  0.80412     C
C      0.94588  0.80412  0.65041     C
C      0.94588  0.94588  0.09959     C
H       0.9482   0.0198   0.8842     H
H       0.9482   0.2302   0.3658     H
H       0.9482   0.3658   0.2302     H
H       0.9482   0.3842   0.5198     H
H       0.9482   0.5198   0.3842     H
H       0.9482   0.7302   0.8658     H
H       0.9482   0.8658   0.7302     H
H       0.9482   0.8842   0.0198     H
C       0.9491   0.0794   0.8216     C
C       0.9491   0.1706   0.4284     C
C       0.9491   0.3216   0.5794     C
C       0.9491   0.4284   0.1706     C
C       0.9491   0.5794   0.3216     C
C       0.9491   0.6706   0.9284     C
C       0.9491   0.8216   0.0794     C
C       0.9491   0.9284   0.6706     C
C      0.95385  0.29615  0.37224     C
C      0.95385  0.37224  0.29615     C
C      0.95385  0.37776  0.45385     C
C      0.95385  0.45385  0.37776     C
C      0.95385  0.79615  0.87224     C
C      0.95385  0.87224  0.79615     C
C      0.95385  0.87776  0.95385     C
C      0.95385  0.95385  0.87776     C
C      0.96225   0.0049    0.108     C
C      0.96225    0.108   0.0049     C
C      0.96225    0.142   0.2451     C
C      0.96225   0.2451    0.142     C
C      0.96225   0.5049    0.608     C
C      0.96225    0.608   0.5049     C
C      0.96225    0.642   0.7451     C
C      0.96225   0.7451    0.642     C
O      0.96408  0.32623  0.37457     O
O      0.96408  0.37457  0.32623     O
O      0.96408  0.37543  0.42377     O
O      0.96408  0.42377  0.37543     O
O      0.96408  0.82623  0.87457     O
O      0.96408  0.87457  0.82623     O
O      0.96408  0.87543  0.92377     O
O      0.96408  0.92377  0.87543     O
C      0.97111  0.01352  0.88629     C
C      0.97111  0.23648  0.36371     C
C      0.97111  0.36371  0.23648     C
C      0.97111  0.38629  0.51352     C
C      0.97111  0.51352  0.38629     C
C      0.97111  0.73648  0.86371     C
C      0.97111  0.86371  0.73648     C
C      0.97111  0.88629  0.01352     C
C       0.9712  0.10518   0.9712     C
C       0.9712  0.14482   0.2788     C
C       0.9712   0.2788  0.14482     C
C       0.9712   0.4712  0.60518     C
C       0.9712  0.60518   0.4712     C
C       0.9712  0.64482   0.7788     C
C       0.9712   0.7788  0.64482     C
C       0.9712   0.9712  0.10518     C
C      0.98016  0.26984  0.36645     C
C      0.98016  0.36645  0.26984     C
C      0.98016  0.38355  0.48016     C
C      0.98016  0.48016  0.38355     C
C      0.98016  0.76984  0.86645     C
C      0.98016  0.86645  0.76984     C
C      0.98016  0.88355  0.98016     C
C      0.98016  0.98016  0.88355     C
H       0.9802   0.0518   0.1158     H
H       0.9802   0.1158   0.0518     H
H       0.9802   0.1342   0.1982     H
H       0.9802   0.1982   0.1342     H
H       0.9802   0.5518   0.6158     H
H       0.9802   0.6158   0.5518     H
H       0.9802   0.6342   0.6982     H
H       0.9802   0.6982   0.6342     H
C      0.98648  0.02889  0.11371     C
C      0.98648  0.11371  0.02889     C
C      0.98648  0.13629  0.22111     C
C      0.98648  0.22111  0.13629     C
C      0.98648  0.52889  0.61371     C
C      0.98648  0.61371  0.52889     C
C      0.98648  0.63629  0.72111     C
C      0.98648  0.72111  0.63629     C
H       0.9886   0.0606    0.894     H
H       0.9886   0.1894    0.356     H
H       0.9886    0.356   0.1894     H
H       0.9886    0.394   0.5606     H
H       0.9886   0.5606    0.394     H
H       0.9886   0.6894    0.856     H
H       0.9886    0.856   0.6894     H
H       0.9886    0.894   0.0606     H
C       0.9951  0.03775    0.892     C
C       0.9951  0.21225    0.358     C
C       0.9951    0.358  0.21225     C
C       0.9951    0.392  0.53775     C
C       0.9951  0.53775    0.392     C
C       0.9951  0.71225    0.858     C
C       0.9951    0.858  0.71225     C
C       0.9951    0.892  0.03775     C
