data_I
_chemical_name_common  '/home/zhangsd/repos/MofS-CGCNN/ML/data/WS24/clean_cifs/OXOLIX'
_cell_length_a 39.80150
_cell_length_b 39.80150
_cell_length_c 39.80150
_cell_angle_alpha 90.00000
_cell_angle_beta  90.00000
_cell_angle_gamma 90.00000
_space_group_name_H-M_alt      'P 1'


loop_
_space_group_symop_operation_xyz
  'x, y, z' 

loop_
_atom_site_label
_atom_site_fract_x
_atom_site_fract_y
_atom_site_fract_z
_atom_site_type_symbol
C      0.00464   0.1076   0.9622     C
C      0.00464   0.1424   0.2878     C
C      0.00464   0.2878   0.1424     C
C      0.00464   0.4622   0.6076     C
C      0.00464   0.6076   0.4622     C
C      0.00464   0.6424   0.7878     C
C      0.00464   0.7878   0.6424     C
C      0.00464   0.9622   0.1076     C
H        0.011   0.1057   0.9393     H
H        0.011   0.1443   0.3107     H
H        0.011   0.3107   0.1443     H
H        0.011   0.4393   0.6057     H
H        0.011   0.6057   0.4393     H
H        0.011   0.6443   0.8107     H
H        0.011   0.8107   0.6443     H
H        0.011   0.9393   0.1057     H
C      0.01354  0.27899   0.3638     C
C      0.01354   0.3638  0.27899     C
C      0.01354   0.3862  0.47101     C
C      0.01354  0.47101   0.3862     C
C      0.01354  0.77899   0.8638     C
C      0.01354   0.8638  0.77899     C
C      0.01354   0.8862  0.97101     C
C      0.01354  0.97101   0.8862     C
C      0.01973  0.01973   0.1164     C
C      0.01973   0.1164  0.01973     C
C      0.01973   0.1336  0.23027     C
C      0.01973  0.23027   0.1336     C
C      0.01973  0.51973   0.6164     C
C      0.01973   0.6164  0.51973     C
C      0.01973   0.6336  0.73027     C
C      0.01973  0.73027   0.6336     C
H       0.0198   0.3019   0.3662     H
H       0.0198   0.3662   0.3019     H
H       0.0198   0.3838   0.4481     H
H       0.0198   0.4481   0.3838     H
H       0.0198   0.8019   0.8662     H
H       0.0198   0.8662   0.8019     H
H       0.0198   0.8838   0.9481     H
H       0.0198   0.9481   0.8838     H
C      0.02886  0.02886   0.8957     C
C      0.02886  0.22114   0.3543     C
C      0.02886   0.3543  0.22114     C
C      0.02886   0.3957  0.52886     C
C      0.02886  0.52886   0.3957     C
C      0.02886  0.72114   0.8543     C
C      0.02886   0.8543  0.72114     C
C      0.02886   0.8957  0.02886     C
C      0.02899   0.1138  0.98646     C
C      0.02899   0.1362  0.26354     C
C      0.02899  0.26354   0.1362     C
C      0.02899  0.48646   0.6138     C
C      0.02899   0.6138  0.48646     C
C      0.02899   0.6362  0.76354     C
C      0.02899  0.76354   0.6362     C
C      0.02899  0.98646   0.1138     C
O      0.03589  0.07618  0.12457     O
O      0.03589  0.12457  0.07618     O
O      0.03589  0.12543  0.17382     O
O      0.03589  0.17382  0.12543     O
O      0.03589  0.57618  0.62457     O
O      0.03589  0.62457  0.57618     O
O      0.03589  0.62543  0.67382     O
O      0.03589  0.67382  0.62543     O
C       0.0378  0.25464   0.3576     C
C       0.0378   0.3576  0.25464     C
C       0.0378   0.3924  0.49536     C
C       0.0378  0.49536   0.3924     C
C       0.0378  0.75464   0.8576     C
C       0.0378   0.8576  0.75464     C
C       0.0378   0.8924  0.99536     C
C       0.0378  0.99536   0.8924     C
C      0.04601  0.04601  0.12236     C
C      0.04601  0.12236  0.04601     C
C      0.04601  0.12764  0.20399     C
C      0.04601  0.20399  0.12764     C
C      0.04601  0.54601  0.62236     C
C      0.04601  0.62236  0.54601     C
C      0.04601  0.62764  0.70399     C
C      0.04601  0.70399  0.62764     C
H       0.0519   0.1162   0.9802     H
H       0.0519   0.1338   0.2698     H
H       0.0519   0.2698   0.1338     H
H       0.0519   0.4802   0.6162     H
H       0.0519   0.6162   0.4802     H
H       0.0519   0.6338   0.7698     H
H       0.0519   0.7698   0.6338     H
H       0.0519   0.9802   0.1162     H
C      0.05404  0.05404   0.9005     C
C      0.05404  0.19596   0.3495     C
C      0.05404   0.3495  0.19596     C
C      0.05404   0.4005  0.55404     C
C      0.05404  0.55404   0.4005     C
C      0.05404  0.69596   0.8495     C
C      0.05404   0.8495  0.69596     C
C      0.05404   0.9005  0.05404     C
O       0.0582   0.1079   0.3399     O
O       0.0582   0.1421   0.9101     O
O       0.0582   0.3399   0.1079     O
O       0.0582   0.4101   0.6421     O
O       0.0582   0.6079   0.8399     O
O       0.0582   0.6421   0.4101     O
O       0.0582   0.8399   0.6079     O
O       0.0582   0.9101   0.1421     O
H       0.0607    0.261   0.3557     H
H       0.0607   0.3557    0.261     H
H       0.0607   0.3943    0.489     H
H       0.0607    0.489   0.3943     H
H       0.0607    0.761   0.8557     H
H       0.0607   0.8557    0.761     H
H       0.0607   0.8943    0.989     H
H       0.0607    0.989   0.8943     H
Zr     0.06281    0.125    0.125    Zr
Zr     0.06281    0.625    0.625    Zr
C      0.07499  0.07499   0.9052     C
C      0.07499  0.17501   0.3448     C
C      0.07499   0.3448  0.17501     C
C      0.07499   0.4052  0.57499     C
C      0.07499  0.57499   0.4052     C
C      0.07499  0.67501   0.8448     C
C      0.07499   0.8448  0.67501     C
C      0.07499   0.9052  0.07499     C
O      0.07618  0.03589  0.12457     O
O      0.07618  0.12457  0.03589     O
O      0.07618  0.12543  0.21411     O
O      0.07618  0.21411  0.12543     O
O      0.07618  0.53589  0.62457     O
O      0.07618  0.62457  0.53589     O
O      0.07618  0.62543  0.71411     O
O      0.07618  0.71411  0.62543     O
O       0.0899   0.3082   0.3921     O
O       0.0899   0.3579   0.4418     O
O       0.0899   0.3921   0.3082     O
O       0.0899   0.4418   0.3579     O
O       0.0899   0.8082   0.8921     O
O       0.0899   0.8579   0.9418     O
O       0.0899   0.8921   0.8082     O
O       0.0899   0.9418   0.8579     O
C       0.0907  0.34142  0.38399     C
C       0.0907  0.36601  0.40858     C
C       0.0907  0.38399  0.34142     C
C       0.0907  0.40858  0.36601     C
C       0.0907  0.84142  0.88399     C
C       0.0907  0.86601  0.90858     C
C       0.0907  0.88399  0.84142     C
C       0.0907  0.90858  0.86601     C
C      0.09142  0.11601   0.3407     C
C      0.09142  0.13399   0.9093     C
C      0.09142   0.3407  0.11601     C
C      0.09142   0.4093  0.63399     C
C      0.09142  0.61601   0.8407     C
C      0.09142  0.63399   0.4093     C
C      0.09142   0.8407  0.61601     C
C      0.09142   0.9093  0.13399     C
C       0.0915  0.35022  0.35022     C
C       0.0915  0.39978  0.39978     C
C       0.0915  0.85022  0.85022     C
C       0.0915  0.89978  0.89978     C
O       0.0928   0.0928   0.1572     O
O       0.0928   0.1572   0.0928     O
O       0.0928   0.5928   0.6572     O
O       0.0928   0.6572   0.5928     O
C       0.0948  0.32499  0.32499     C
C       0.0948  0.42501  0.42501     C
C       0.0948  0.82499  0.82499     C
C       0.0948  0.92501  0.92501     C
O       0.0959   0.0959   0.0959     O
O       0.0959   0.1541   0.1541     O
O       0.0959   0.5959   0.5959     O
O       0.0959   0.6541   0.6541     O
C       0.0995  0.30404  0.30404     C
C       0.0995  0.44596  0.44596     C
C       0.0995  0.80404  0.80404     C
C       0.0995  0.94596  0.94596     C
C      0.10022  0.10022   0.9085     C
C      0.10022  0.14978   0.3415     C
C      0.10022   0.3415  0.14978     C
C      0.10022   0.4085  0.60022     C
C      0.10022  0.60022   0.4085     C
C      0.10022  0.64978   0.8415     C
C      0.10022   0.8415  0.64978     C
C      0.10022   0.9085  0.10022     C
C       0.1043  0.27886  0.27886     C
C       0.1043  0.47114  0.47114     C
C       0.1043  0.77886  0.77886     C
C       0.1043  0.97114  0.97114     C
H       0.1057    0.011   0.9393     H
H       0.1057    0.239   0.3107     H
H       0.1057   0.3107    0.239     H
H       0.1057   0.4393    0.511     H
H       0.1057    0.511   0.4393     H
H       0.1057    0.739   0.8107     H
H       0.1057   0.8107    0.739     H
H       0.1057   0.9393    0.011     H
C       0.1076  0.00464   0.9622     C
C       0.1076  0.24536   0.2878     C
C       0.1076   0.2878  0.24536     C
C       0.1076   0.4622  0.50464     C
C       0.1076  0.50464   0.4622     C
C       0.1076  0.74536   0.7878     C
C       0.1076   0.7878  0.74536     C
C       0.1076   0.9622  0.00464     C
O       0.1079   0.0582   0.3399     O
O       0.1079   0.1918   0.9101     O
O       0.1079   0.3399   0.0582     O
O       0.1079   0.4101   0.6918     O
O       0.1079   0.5582   0.8399     O
O       0.1079   0.6918   0.4101     O
O       0.1079   0.8399   0.5582     O
O       0.1079   0.9101   0.1918     O
C       0.1138  0.02899  0.98646     C
C       0.1138  0.22101  0.26354     C
C       0.1138  0.26354  0.22101     C
C       0.1138  0.48646  0.52899     C
C       0.1138  0.52899  0.48646     C
C       0.1138  0.72101  0.76354     C
C       0.1138  0.76354  0.72101     C
C       0.1138  0.98646  0.02899     C
C      0.11601  0.09142   0.3407     C
C      0.11601  0.15858   0.9093     C
C      0.11601   0.3407  0.09142     C
C      0.11601   0.4093  0.65858     C
C      0.11601  0.59142   0.8407     C
C      0.11601  0.65858   0.4093     C
C      0.11601   0.8407  0.59142     C
C      0.11601   0.9093  0.15858     C
H       0.1162   0.0519   0.9802     H
H       0.1162   0.1981   0.2698     H
H       0.1162   0.2698   0.1981     H
H       0.1162   0.4802   0.5519     H
H       0.1162   0.5519   0.4802     H
H       0.1162   0.6981   0.7698     H
H       0.1162   0.7698   0.6981     H
H       0.1162   0.9802   0.0519     H
C       0.1164  0.01973  0.01973     C
C       0.1164  0.23027  0.23027     C
C       0.1164  0.51973  0.51973     C
C       0.1164  0.73027  0.73027     C
C      0.12236  0.04601  0.04601     C
C      0.12236  0.20399  0.20399     C
C      0.12236  0.54601  0.54601     C
C      0.12236  0.70399  0.70399     C
O      0.12457  0.03589  0.07618     O
O      0.12457  0.07618  0.03589     O
O      0.12457  0.17382  0.21411     O
O      0.12457  0.21411  0.17382     O
O      0.12457  0.53589  0.57618     O
O      0.12457  0.57618  0.53589     O
O      0.12457  0.67382  0.71411     O
O      0.12457  0.71411  0.67382     O
Zr       0.125  0.06281    0.125    Zr
Zr       0.125    0.125  0.06281    Zr
Zr       0.125    0.125  0.18719    Zr
Zr       0.125  0.18719    0.125    Zr
Zr       0.125  0.56281    0.625    Zr
Zr       0.125    0.625  0.56281    Zr
Zr       0.125    0.625  0.68719    Zr
Zr       0.125  0.68719    0.625    Zr
O      0.12543  0.03589  0.17382     O
O      0.12543  0.07618  0.21411     O
O      0.12543  0.17382  0.03589     O
O      0.12543  0.21411  0.07618     O
O      0.12543  0.53589  0.67382     O
O      0.12543  0.57618  0.71411     O
O      0.12543  0.67382  0.53589     O
O      0.12543  0.71411  0.57618     O
C      0.12764  0.04601  0.20399     C
C      0.12764  0.20399  0.04601     C
C      0.12764  0.54601  0.70399     C
C      0.12764  0.70399  0.54601     C
C       0.1336  0.01973  0.23027     C
C       0.1336  0.23027  0.01973     C
C       0.1336  0.51973  0.73027     C
C       0.1336  0.73027  0.51973     C
H       0.1338   0.0519   0.2698     H
H       0.1338   0.1981   0.9802     H
H       0.1338   0.2698   0.0519     H
H       0.1338   0.4802   0.6981     H
H       0.1338   0.5519   0.7698     H
H       0.1338   0.6981   0.4802     H
H       0.1338   0.7698   0.5519     H
H       0.1338   0.9802   0.1981     H
C      0.13399  0.09142   0.9093     C
C      0.13399  0.15858   0.3407     C
C      0.13399   0.3407  0.15858     C
C      0.13399   0.4093  0.59142     C
C      0.13399  0.59142   0.4093     C
C      0.13399  0.65858   0.8407     C
C      0.13399   0.8407  0.65858     C
C      0.13399   0.9093  0.09142     C
C       0.1362  0.02899  0.26354     C
C       0.1362  0.22101  0.98646     C
C       0.1362  0.26354  0.02899     C
C       0.1362  0.48646  0.72101     C
C       0.1362  0.52899  0.76354     C
C       0.1362  0.72101  0.48646     C
C       0.1362  0.76354  0.52899     C
C       0.1362  0.98646  0.22101     C
O       0.1421   0.0582   0.9101     O
O       0.1421   0.1918   0.3399     O
O       0.1421   0.3399   0.1918     O
O       0.1421   0.4101   0.5582     O
O       0.1421   0.5582   0.4101     O
O       0.1421   0.6918   0.8399     O
O       0.1421   0.8399   0.6918     O
O       0.1421   0.9101   0.0582     O
C       0.1424  0.00464   0.2878     C
C       0.1424  0.24536   0.9622     C
C       0.1424   0.2878  0.00464     C
C       0.1424   0.4622  0.74536     C
C       0.1424  0.50464   0.7878     C
C       0.1424  0.74536   0.4622     C
C       0.1424   0.7878  0.50464     C
C       0.1424   0.9622  0.24536     C
H       0.1443    0.011   0.3107     H
H       0.1443    0.239   0.9393     H
H       0.1443   0.3107    0.011     H
H       0.1443   0.4393    0.739     H
H       0.1443    0.511   0.8107     H
H       0.1443    0.739   0.4393     H
H       0.1443   0.8107    0.511     H
H       0.1443   0.9393    0.239     H
C       0.1457  0.27886  0.97114     C
C       0.1457  0.47114  0.77886     C
C       0.1457  0.77886  0.47114     C
C       0.1457  0.97114  0.27886     C
C      0.14978  0.10022   0.3415     C
C      0.14978  0.14978   0.9085     C
C      0.14978   0.3415  0.10022     C
C      0.14978   0.4085  0.64978     C
C      0.14978  0.60022   0.8415     C
C      0.14978  0.64978   0.4085     C
C      0.14978   0.8415  0.60022     C
C      0.14978   0.9085  0.14978     C
C       0.1505  0.30404  0.94596     C
C       0.1505  0.44596  0.80404     C
C       0.1505  0.80404  0.44596     C
C       0.1505  0.94596  0.30404     C
O       0.1541   0.0959   0.1541     O
O       0.1541   0.1541   0.0959     O
O       0.1541   0.5959   0.6541     O
O       0.1541   0.6541   0.5959     O
C       0.1552  0.32499  0.92501     C
C       0.1552  0.42501  0.82499     C
C       0.1552  0.82499  0.42501     C
C       0.1552  0.92501  0.32499     C
O       0.1572   0.0928   0.0928     O
O       0.1572   0.1572   0.1572     O
O       0.1572   0.5928   0.5928     O
O       0.1572   0.6572   0.6572     O
C       0.1585  0.35022  0.89978     C
C       0.1585  0.39978  0.85022     C
C       0.1585  0.85022  0.39978     C
C       0.1585  0.89978  0.35022     C
C      0.15858  0.11601   0.9093     C
C      0.15858  0.13399   0.3407     C
C      0.15858   0.3407  0.13399     C
C      0.15858   0.4093  0.61601     C
C      0.15858  0.61601   0.4093     C
C      0.15858  0.63399   0.8407     C
C      0.15858   0.8407  0.63399     C
C      0.15858   0.9093  0.11601     C
C       0.1593  0.34142  0.86601     C
C       0.1593  0.36601  0.84142     C
C       0.1593  0.38399  0.90858     C
C       0.1593  0.40858  0.88399     C
C       0.1593  0.84142  0.36601     C
C       0.1593  0.86601  0.34142     C
C       0.1593  0.88399  0.40858     C
C       0.1593  0.90858  0.38399     C
O       0.1601   0.3082   0.8579     O
O       0.1601   0.3579   0.8082     O
O       0.1601   0.3921   0.9418     O
O       0.1601   0.4418   0.8921     O
O       0.1601   0.8082   0.3579     O
O       0.1601   0.8579   0.3082     O
O       0.1601   0.8921   0.4418     O
O       0.1601   0.9418   0.3921     O
O      0.17382  0.03589  0.12543     O
O      0.17382  0.12457  0.21411     O
O      0.17382  0.12543  0.03589     O
O      0.17382  0.21411  0.12457     O
O      0.17382  0.53589  0.62543     O
O      0.17382  0.62457  0.71411     O
O      0.17382  0.62543  0.53589     O
O      0.17382  0.71411  0.62457     O
C      0.17501  0.07499   0.3448     C
C      0.17501  0.17501   0.9052     C
C      0.17501   0.3448  0.07499     C
C      0.17501   0.4052  0.67501     C
C      0.17501  0.57499   0.8448     C
C      0.17501  0.67501   0.4052     C
C      0.17501   0.8448  0.57499     C
C      0.17501   0.9052  0.17501     C
Zr     0.18719    0.125    0.125    Zr
Zr     0.18719    0.625    0.625    Zr
H       0.1893    0.261   0.8943     H
H       0.1893   0.3557    0.989     H
H       0.1893   0.3943    0.761     H
H       0.1893    0.489   0.8557     H
H       0.1893    0.761   0.3943     H
H       0.1893   0.8557    0.489     H
H       0.1893   0.8943    0.261     H
H       0.1893    0.989   0.3557     H
O       0.1918   0.1079   0.9101     O
O       0.1918   0.1421   0.3399     O
O       0.1918   0.3399   0.1421     O
O       0.1918   0.4101   0.6079     O
O       0.1918   0.6079   0.4101     O
O       0.1918   0.6421   0.8399     O
O       0.1918   0.8399   0.6421     O
O       0.1918   0.9101   0.1079     O
C      0.19596  0.05404   0.3495     C
C      0.19596  0.19596   0.9005     C
C      0.19596   0.3495  0.05404     C
C      0.19596   0.4005  0.69596     C
C      0.19596  0.55404   0.8495     C
C      0.19596  0.69596   0.4005     C
C      0.19596   0.8495  0.55404     C
C      0.19596   0.9005  0.19596     C
H       0.1981   0.1162   0.2698     H
H       0.1981   0.1338   0.9802     H
H       0.1981   0.2698   0.1162     H
H       0.1981   0.4802   0.6338     H
H       0.1981   0.6162   0.7698     H
H       0.1981   0.6338   0.4802     H
H       0.1981   0.7698   0.6162     H
H       0.1981   0.9802   0.1338     H
C      0.20399  0.04601  0.12764     C
C      0.20399  0.12236  0.20399     C
C      0.20399  0.12764  0.04601     C
C      0.20399  0.20399  0.12236     C
C      0.20399  0.54601  0.62764     C
C      0.20399  0.62236  0.70399     C
C      0.20399  0.62764  0.54601     C
C      0.20399  0.70399  0.62236     C
C       0.2122  0.25464   0.8924     C
C       0.2122   0.3576  0.99536     C
C       0.2122   0.3924  0.75464     C
C       0.2122  0.49536   0.8576     C
C       0.2122  0.75464   0.3924     C
C       0.2122   0.8576  0.49536     C
C       0.2122   0.8924  0.25464     C
C       0.2122  0.99536   0.3576     C
O      0.21411  0.07618  0.12543     O
O      0.21411  0.12457  0.17382     O
O      0.21411  0.12543  0.07618     O
O      0.21411  0.17382  0.12457     O
O      0.21411  0.57618  0.62543     O
O      0.21411  0.62457  0.67382     O
O      0.21411  0.62543  0.57618     O
O      0.21411  0.67382  0.62457     O
C      0.22101   0.1138  0.26354     C
C      0.22101   0.1362  0.98646     C
C      0.22101  0.26354   0.1138     C
C      0.22101  0.48646   0.6362     C
C      0.22101   0.6138  0.76354     C
C      0.22101   0.6362  0.48646     C
C      0.22101  0.76354   0.6138     C
C      0.22101  0.98646   0.1362     C
C      0.22114  0.02886   0.3543     C
C      0.22114  0.22114   0.8957     C
C      0.22114   0.3543  0.02886     C
C      0.22114   0.3957  0.72114     C
C      0.22114  0.52886   0.8543     C
C      0.22114  0.72114   0.3957     C
C      0.22114   0.8543  0.52886     C
C      0.22114   0.8957  0.22114     C
H       0.2302   0.3019   0.8838     H
H       0.2302   0.3662   0.9481     H
H       0.2302   0.3838   0.8019     H
H       0.2302   0.4481   0.8662     H
H       0.2302   0.8019   0.3838     H
H       0.2302   0.8662   0.4481     H
H       0.2302   0.8838   0.3019     H
H       0.2302   0.9481   0.3662     H
C      0.23027  0.01973   0.1336     C
C      0.23027   0.1164  0.23027     C
C      0.23027   0.1336  0.01973     C
C      0.23027  0.23027   0.1164     C
C      0.23027  0.51973   0.6336     C
C      0.23027   0.6164  0.73027     C
C      0.23027   0.6336  0.51973     C
C      0.23027  0.73027   0.6164     C
C      0.23646  0.27899   0.8862     C
C      0.23646   0.3638  0.97101     C
C      0.23646   0.3862  0.77899     C
C      0.23646  0.47101   0.8638     C
C      0.23646  0.77899   0.3862     C
C      0.23646   0.8638  0.47101     C
C      0.23646   0.8862  0.27899     C
C      0.23646  0.97101   0.3638     C
H        0.239   0.1057   0.3107     H
H        0.239   0.1443   0.9393     H
H        0.239   0.3107   0.1057     H
H        0.239   0.4393   0.6443     H
H        0.239   0.6057   0.8107     H
H        0.239   0.6443   0.4393     H
H        0.239   0.8107   0.6057     H
H        0.239   0.9393   0.1443     H
C      0.24536   0.1076   0.2878     C
C      0.24536   0.1424   0.9622     C
C      0.24536   0.2878   0.1076     C
C      0.24536   0.4622   0.6424     C
C      0.24536   0.6076   0.7878     C
C      0.24536   0.6424   0.4622     C
C      0.24536   0.7878   0.6076     C
C      0.24536   0.9622   0.1424     C
C      0.25464   0.0378   0.3576     C
C      0.25464   0.2122   0.8924     C
C      0.25464   0.3576   0.0378     C
C      0.25464   0.3924   0.7122     C
C      0.25464   0.5378   0.8576     C
C      0.25464   0.7122   0.3924     C
C      0.25464   0.8576   0.5378     C
C      0.25464   0.8924   0.2122     C
H        0.261   0.0607   0.3557     H
H        0.261   0.1893   0.8943     H
H        0.261   0.3557   0.0607     H
H        0.261   0.3943   0.6893     H
H        0.261   0.5607   0.8557     H
H        0.261   0.6893   0.3943     H
H        0.261   0.8557   0.5607     H
H        0.261   0.8943   0.1893     H
C      0.26354  0.02899   0.1362     C
C      0.26354   0.1138  0.22101     C
C      0.26354   0.1362  0.02899     C
C      0.26354  0.22101   0.1138     C
C      0.26354  0.52899   0.6362     C
C      0.26354   0.6138  0.72101     C
C      0.26354   0.6362  0.52899     C
C      0.26354  0.72101   0.6138     C
C      0.26973  0.26973   0.8836     C
C      0.26973   0.3664  0.98027     C
C      0.26973   0.3836  0.76973     C
C      0.26973  0.48027   0.8664     C
C      0.26973  0.76973   0.3836     C
C      0.26973   0.8664  0.48027     C
C      0.26973   0.8836  0.26973     C
C      0.26973  0.98027   0.3664     C
H       0.2698   0.0519   0.1338     H
H       0.2698   0.1162   0.1981     H
H       0.2698   0.1338   0.0519     H
H       0.2698   0.1981   0.1162     H
H       0.2698   0.5519   0.6338     H
H       0.2698   0.6162   0.6981     H
H       0.2698   0.6338   0.5519     H
H       0.2698   0.6981   0.6162     H
C      0.27886   0.1043  0.27886     C
C      0.27886   0.1457  0.97114     C
C      0.27886  0.27886   0.1043     C
C      0.27886  0.47114   0.6457     C
C      0.27886   0.6043  0.77886     C
C      0.27886   0.6457  0.47114     C
C      0.27886  0.77886   0.6043     C
C      0.27886  0.97114   0.1457     C
C      0.27899  0.01354   0.3638     C
C      0.27899  0.23646   0.8862     C
C      0.27899   0.3638  0.01354     C
C      0.27899   0.3862  0.73646     C
C      0.27899  0.51354   0.8638     C
C      0.27899  0.73646   0.3862     C
C      0.27899   0.8638  0.51354     C
C      0.27899   0.8862  0.23646     C
O      0.28589  0.32618  0.87543     O
O      0.28589  0.37457  0.92382     O
O      0.28589  0.37543  0.82618     O
O      0.28589  0.42382  0.87457     O
O      0.28589  0.82618  0.37543     O
O      0.28589  0.87457  0.42382     O
O      0.28589  0.87543  0.32618     O
O      0.28589  0.92382  0.37457     O
C       0.2878  0.00464   0.1424     C
C       0.2878   0.1076  0.24536     C
C       0.2878   0.1424  0.00464     C
C       0.2878  0.24536   0.1076     C
C       0.2878  0.50464   0.6424     C
C       0.2878   0.6076  0.74536     C
C       0.2878   0.6424  0.50464     C
C       0.2878  0.74536   0.6076     C
C      0.29601  0.29601  0.87764     C
C      0.29601  0.37236  0.95399     C
C      0.29601  0.37764  0.79601     C
C      0.29601  0.45399  0.87236     C
C      0.29601  0.79601  0.37764     C
C      0.29601  0.87236  0.45399     C
C      0.29601  0.87764  0.29601     C
C      0.29601  0.95399  0.37236     C
H       0.3019   0.0198   0.3662     H
H       0.3019   0.2302   0.8838     H
H       0.3019   0.3662   0.0198     H
H       0.3019   0.3838   0.7302     H
H       0.3019   0.5198   0.8662     H
H       0.3019   0.7302   0.3838     H
H       0.3019   0.8662   0.5198     H
H       0.3019   0.8838   0.2302     H
C      0.30404   0.0995  0.30404     C
C      0.30404   0.1505  0.94596     C
C      0.30404  0.30404   0.0995     C
C      0.30404  0.44596   0.6505     C
C      0.30404   0.5995  0.80404     C
C      0.30404   0.6505  0.44596     C
C      0.30404  0.80404   0.5995     C
C      0.30404  0.94596   0.1505     C
O       0.3082   0.0899   0.3921     O
O       0.3082   0.1601   0.8579     O
O       0.3082   0.3579   0.6601     O
O       0.3082   0.3921   0.0899     O
O       0.3082   0.5899   0.8921     O
O       0.3082   0.6601   0.3579     O
O       0.3082   0.8579   0.1601     O
O       0.3082   0.8921   0.5899     O
H       0.3107    0.011   0.1443     H
H       0.3107   0.1057    0.239     H
H       0.3107   0.1443    0.011     H
H       0.3107    0.239   0.1057     H
H       0.3107    0.511   0.6443     H
H       0.3107   0.6057    0.739     H
H       0.3107   0.6443    0.511     H
H       0.3107    0.739   0.6057     H
Zr     0.31281    0.375    0.875    Zr
Zr     0.31281    0.875    0.375    Zr
C      0.32499   0.0948  0.32499     C
C      0.32499   0.1552  0.92501     C
C      0.32499  0.32499   0.0948     C
C      0.32499  0.42501   0.6552     C
C      0.32499   0.5948  0.82499     C
C      0.32499   0.6552  0.42501     C
C      0.32499  0.82499   0.5948     C
C      0.32499  0.92501   0.1552     C
O      0.32618  0.28589  0.87543     O
O      0.32618  0.37457  0.96411     O
O      0.32618  0.37543  0.78589     O
O      0.32618  0.46411  0.87457     O
O      0.32618  0.78589  0.37543     O
O      0.32618  0.87457  0.46411     O
O      0.32618  0.87543  0.28589     O
O      0.32618  0.96411  0.37457     O
O       0.3399   0.0582   0.1079     O
O       0.3399   0.1079   0.0582     O
O       0.3399   0.1421   0.1918     O
O       0.3399   0.1918   0.1421     O
O       0.3399   0.5582   0.6079     O
O       0.3399   0.6079   0.5582     O
O       0.3399   0.6421   0.6918     O
O       0.3399   0.6918   0.6421     O
C       0.3407  0.09142  0.11601     C
C       0.3407  0.11601  0.09142     C
C       0.3407  0.13399  0.15858     C
C       0.3407  0.15858  0.13399     C
C       0.3407  0.59142  0.61601     C
C       0.3407  0.61601  0.59142     C
C       0.3407  0.63399  0.65858     C
C       0.3407  0.65858  0.63399     C
C      0.34142   0.0907  0.38399     C
C      0.34142   0.1593  0.86601     C
C      0.34142  0.36601   0.6593     C
C      0.34142  0.38399   0.0907     C
C      0.34142   0.5907  0.88399     C
C      0.34142   0.6593  0.36601     C
C      0.34142  0.86601   0.1593     C
C      0.34142  0.88399   0.5907     C
C       0.3415  0.10022  0.14978     C
C       0.3415  0.14978  0.10022     C
C       0.3415  0.60022  0.64978     C
C       0.3415  0.64978  0.60022     C
O       0.3428   0.3428   0.8428     O
O       0.3428   0.4072   0.9072     O
O       0.3428   0.8428   0.3428     O
O       0.3428   0.9072   0.4072     O
C       0.3448  0.07499  0.17501     C
C       0.3448  0.17501  0.07499     C
C       0.3448  0.57499  0.67501     C
C       0.3448  0.67501  0.57499     C
O       0.3459   0.3459   0.9041     O
O       0.3459   0.4041   0.8459     O
O       0.3459   0.8459   0.4041     O
O       0.3459   0.9041   0.3459     O
C       0.3495  0.05404  0.19596     C
C       0.3495  0.19596  0.05404     C
C       0.3495  0.55404  0.69596     C
C       0.3495  0.69596  0.55404     C
C      0.35022   0.0915  0.35022     C
C      0.35022   0.1585  0.89978     C
C      0.35022  0.35022   0.0915     C
C      0.35022  0.39978   0.6585     C
C      0.35022   0.5915  0.85022     C
C      0.35022   0.6585  0.39978     C
C      0.35022  0.85022   0.5915     C
C      0.35022  0.89978   0.1585     C
C       0.3543  0.02886  0.22114     C
C       0.3543  0.22114  0.02886     C
C       0.3543  0.52886  0.72114     C
C       0.3543  0.72114  0.52886     C
H       0.3557   0.0607    0.261     H
H       0.3557   0.1893    0.989     H
H       0.3557    0.261   0.0607     H
H       0.3557    0.489   0.6893     H
H       0.3557   0.5607    0.761     H
H       0.3557   0.6893    0.489     H
H       0.3557    0.761   0.5607     H
H       0.3557    0.989   0.1893     H
C       0.3576   0.0378  0.25464     C
C       0.3576   0.2122  0.99536     C
C       0.3576  0.25464   0.0378     C
C       0.3576  0.49536   0.7122     C
C       0.3576   0.5378  0.75464     C
C       0.3576   0.7122  0.49536     C
C       0.3576  0.75464   0.5378     C
C       0.3576  0.99536   0.2122     C
O       0.3579   0.0899   0.4418     O
O       0.3579   0.1601   0.8082     O
O       0.3579   0.3082   0.6601     O
O       0.3579   0.4418   0.0899     O
O       0.3579   0.5899   0.9418     O
O       0.3579   0.6601   0.3082     O
O       0.3579   0.8082   0.1601     O
O       0.3579   0.9418   0.5899     O
C       0.3638  0.01354  0.27899     C
C       0.3638  0.23646  0.97101     C
C       0.3638  0.27899  0.01354     C
C       0.3638  0.47101  0.73646     C
C       0.3638  0.51354  0.77899     C
C       0.3638  0.73646  0.47101     C
C       0.3638  0.77899  0.51354     C
C       0.3638  0.97101  0.23646     C
C      0.36601   0.0907  0.40858     C
C      0.36601   0.1593  0.84142     C
C      0.36601  0.34142   0.6593     C
C      0.36601  0.40858   0.0907     C
C      0.36601   0.5907  0.90858     C
C      0.36601   0.6593  0.34142     C
C      0.36601  0.84142   0.1593     C
C      0.36601  0.90858   0.5907     C
H       0.3662   0.0198   0.3019     H
H       0.3662   0.2302   0.9481     H
H       0.3662   0.3019   0.0198     H
H       0.3662   0.4481   0.7302     H
H       0.3662   0.5198   0.8019     H
H       0.3662   0.7302   0.4481     H
H       0.3662   0.8019   0.5198     H
H       0.3662   0.9481   0.2302     H
C       0.3664  0.26973  0.98027     C
C       0.3664  0.48027  0.76973     C
C       0.3664  0.76973  0.48027     C
C       0.3664  0.98027  0.26973     C
C      0.37236  0.29601  0.95399     C
C      0.37236  0.45399  0.79601     C
C      0.37236  0.79601  0.45399     C
C      0.37236  0.95399  0.29601     C
O      0.37457  0.28589  0.92382     O
O      0.37457  0.32618  0.96411     O
O      0.37457  0.42382  0.78589     O
O      0.37457  0.46411  0.82618     O
O      0.37457  0.78589  0.42382     O
O      0.37457  0.82618  0.46411     O
O      0.37457  0.92382  0.28589     O
O      0.37457  0.96411  0.32618     O
Zr       0.375  0.31281    0.875    Zr
Zr       0.375    0.375  0.81281    Zr
Zr       0.375    0.375  0.93719    Zr
Zr       0.375  0.43719    0.875    Zr
Zr       0.375  0.81281    0.375    Zr
Zr       0.375    0.875  0.31281    Zr
Zr       0.375    0.875  0.43719    Zr
Zr       0.375  0.93719    0.375    Zr
O      0.37543  0.28589  0.82618     O
O      0.37543  0.32618  0.78589     O
O      0.37543  0.42382  0.96411     O
O      0.37543  0.46411  0.92382     O
O      0.37543  0.78589  0.32618     O
O      0.37543  0.82618  0.28589     O
O      0.37543  0.92382  0.46411     O
O      0.37543  0.96411  0.42382     O
C      0.37764  0.29601  0.79601     C
C      0.37764  0.45399  0.95399     C
C      0.37764  0.79601  0.29601     C
C      0.37764  0.95399  0.45399     C
C       0.3836  0.26973  0.76973     C
C       0.3836  0.48027  0.98027     C
C       0.3836  0.76973  0.26973     C
C       0.3836  0.98027  0.48027     C
H       0.3838   0.0198   0.4481     H
H       0.3838   0.2302   0.8019     H
H       0.3838   0.3019   0.7302     H
H       0.3838   0.4481   0.0198     H
H       0.3838   0.5198   0.9481     H
H       0.3838   0.7302   0.3019     H
H       0.3838   0.8019   0.2302     H
H       0.3838   0.9481   0.5198     H
C      0.38399   0.0907  0.34142     C
C      0.38399   0.1593  0.90858     C
C      0.38399  0.34142   0.0907     C
C      0.38399  0.40858   0.6593     C
C      0.38399   0.5907  0.84142     C
C      0.38399   0.6593  0.40858     C
C      0.38399  0.84142   0.5907     C
C      0.38399  0.90858   0.1593     C
C       0.3862  0.01354  0.47101     C
C       0.3862  0.23646  0.77899     C
C       0.3862  0.27899  0.73646     C
C       0.3862  0.47101  0.01354     C
C       0.3862  0.51354  0.97101     C
C       0.3862  0.73646  0.27899     C
C       0.3862  0.77899  0.23646     C
C       0.3862  0.97101  0.51354     C
O       0.3921   0.0899   0.3082     O
O       0.3921   0.1601   0.9418     O
O       0.3921   0.3082   0.0899     O
O       0.3921   0.4418   0.6601     O
O       0.3921   0.5899   0.8082     O
O       0.3921   0.6601   0.4418     O
O       0.3921   0.8082   0.5899     O
O       0.3921   0.9418   0.1601     O
C       0.3924   0.0378  0.49536     C
C       0.3924   0.2122  0.75464     C
C       0.3924  0.25464   0.7122     C
C       0.3924  0.49536   0.0378     C
C       0.3924   0.5378  0.99536     C
C       0.3924   0.7122  0.25464     C
C       0.3924  0.75464   0.2122     C
C       0.3924  0.99536   0.5378     C
H       0.3943   0.0607    0.489     H
H       0.3943   0.1893    0.761     H
H       0.3943    0.261   0.6893     H
H       0.3943    0.489   0.0607     H
H       0.3943   0.5607    0.989     H
H       0.3943   0.6893    0.261     H
H       0.3943    0.761   0.1893     H
H       0.3943    0.989   0.5607     H
C       0.3957  0.02886  0.52886     C
C       0.3957  0.22114  0.72114     C
C       0.3957  0.52886  0.02886     C
C       0.3957  0.72114  0.22114     C
C      0.39978   0.0915  0.39978     C
C      0.39978   0.1585  0.85022     C
C      0.39978  0.35022   0.6585     C
C      0.39978  0.39978   0.0915     C
C      0.39978   0.5915  0.89978     C
C      0.39978   0.6585  0.35022     C
C      0.39978  0.85022   0.1585     C
C      0.39978  0.89978   0.5915     C
C       0.4005  0.05404  0.55404     C
C       0.4005  0.19596  0.69596     C
C       0.4005  0.55404  0.05404     C
C       0.4005  0.69596  0.19596     C
O       0.4041   0.3459   0.8459     O
O       0.4041   0.4041   0.9041     O
O       0.4041   0.8459   0.3459     O
O       0.4041   0.9041   0.4041     O
C       0.4052  0.07499  0.57499     C
C       0.4052  0.17501  0.67501     C
C       0.4052  0.57499  0.07499     C
C       0.4052  0.67501  0.17501     C
O       0.4072   0.3428   0.9072     O
O       0.4072   0.4072   0.8428     O
O       0.4072   0.8428   0.4072     O
O       0.4072   0.9072   0.3428     O
C       0.4085  0.10022  0.60022     C
C       0.4085  0.14978  0.64978     C
C       0.4085  0.60022  0.10022     C
C       0.4085  0.64978  0.14978     C
C      0.40858   0.0907  0.36601     C
C      0.40858   0.1593  0.88399     C
C      0.40858  0.36601   0.0907     C
C      0.40858  0.38399   0.6593     C
C      0.40858   0.5907  0.86601     C
C      0.40858   0.6593  0.38399     C
C      0.40858  0.86601   0.5907     C
C      0.40858  0.88399   0.1593     C
C       0.4093  0.09142  0.63399     C
C       0.4093  0.11601  0.65858     C
C       0.4093  0.13399  0.59142     C
C       0.4093  0.15858  0.61601     C
C       0.4093  0.59142  0.13399     C
C       0.4093  0.61601  0.15858     C
C       0.4093  0.63399  0.09142     C
C       0.4093  0.65858  0.11601     C
O       0.4101   0.0582   0.6421     O
O       0.4101   0.1079   0.6918     O
O       0.4101   0.1421   0.5582     O
O       0.4101   0.1918   0.6079     O
O       0.4101   0.5582   0.1421     O
O       0.4101   0.6079   0.1918     O
O       0.4101   0.6421   0.0582     O
O       0.4101   0.6918   0.1079     O
O      0.42382  0.28589  0.87457     O
O      0.42382  0.37457  0.78589     O
O      0.42382  0.37543  0.96411     O
O      0.42382  0.46411  0.87543     O
O      0.42382  0.78589  0.37457     O
O      0.42382  0.87457  0.28589     O
O      0.42382  0.87543  0.46411     O
O      0.42382  0.96411  0.37543     O
C      0.42501   0.0948  0.42501     C
C      0.42501   0.1552  0.82499     C
C      0.42501  0.32499   0.6552     C
C      0.42501  0.42501   0.0948     C
C      0.42501   0.5948  0.92501     C
C      0.42501   0.6552  0.32499     C
C      0.42501  0.82499   0.1552     C
C      0.42501  0.92501   0.5948     C
Zr     0.43719    0.375    0.875    Zr
Zr     0.43719    0.875    0.375    Zr
H       0.4393    0.011   0.6057     H
H       0.4393   0.1057    0.511     H
H       0.4393   0.1443    0.739     H
H       0.4393    0.239   0.6443     H
H       0.4393    0.511   0.1057     H
H       0.4393   0.6057    0.011     H
H       0.4393   0.6443    0.239     H
H       0.4393    0.739   0.1443     H
O       0.4418   0.0899   0.3579     O
O       0.4418   0.1601   0.8921     O
O       0.4418   0.3579   0.0899     O
O       0.4418   0.3921   0.6601     O
O       0.4418   0.5899   0.8579     O
O       0.4418   0.6601   0.3921     O
O       0.4418   0.8579   0.5899     O
O       0.4418   0.8921   0.1601     O
C      0.44596   0.0995  0.44596     C
C      0.44596   0.1505  0.80404     C
C      0.44596  0.30404   0.6505     C
C      0.44596  0.44596   0.0995     C
C      0.44596   0.5995  0.94596     C
C      0.44596   0.6505  0.30404     C
C      0.44596  0.80404   0.1505     C
C      0.44596  0.94596   0.5995     C
H       0.4481   0.0198   0.3838     H
H       0.4481   0.2302   0.8662     H
H       0.4481   0.3662   0.7302     H
H       0.4481   0.3838   0.0198     H
H       0.4481   0.5198   0.8838     H
H       0.4481   0.7302   0.3662     H
H       0.4481   0.8662   0.2302     H
H       0.4481   0.8838   0.5198     H
C      0.45399  0.29601  0.87236     C
C      0.45399  0.37236  0.79601     C
C      0.45399  0.37764  0.95399     C
C      0.45399  0.45399  0.87764     C
C      0.45399  0.79601  0.37236     C
C      0.45399  0.87236  0.29601     C
C      0.45399  0.87764  0.45399     C
C      0.45399  0.95399  0.37764     C
C       0.4622  0.00464   0.6076     C
C       0.4622   0.1076  0.50464     C
C       0.4622   0.1424  0.74536     C
C       0.4622  0.24536   0.6424     C
C       0.4622  0.50464   0.1076     C
C       0.4622   0.6076  0.00464     C
C       0.4622   0.6424  0.24536     C
C       0.4622  0.74536   0.1424     C
O      0.46411  0.32618  0.87457     O
O      0.46411  0.37457  0.82618     O
O      0.46411  0.37543  0.92382     O
O      0.46411  0.42382  0.87543     O
O      0.46411  0.82618  0.37457     O
O      0.46411  0.87457  0.32618     O
O      0.46411  0.87543  0.42382     O
O      0.46411  0.92382  0.37543     O
C      0.47101  0.01354   0.3862     C
C      0.47101  0.23646   0.8638     C
C      0.47101   0.3638  0.73646     C
C      0.47101   0.3862  0.01354     C
C      0.47101  0.51354   0.8862     C
C      0.47101  0.73646   0.3638     C
C      0.47101   0.8638  0.23646     C
C      0.47101   0.8862  0.51354     C
C      0.47114   0.1043  0.47114     C
C      0.47114   0.1457  0.77886     C
C      0.47114  0.27886   0.6457     C
C      0.47114  0.47114   0.1043     C
C      0.47114   0.6043  0.97114     C
C      0.47114   0.6457  0.27886     C
C      0.47114  0.77886   0.1457     C
C      0.47114  0.97114   0.6043     C
H       0.4802   0.0519   0.6162     H
H       0.4802   0.1162   0.5519     H
H       0.4802   0.1338   0.6981     H
H       0.4802   0.1981   0.6338     H
H       0.4802   0.5519   0.1162     H
H       0.4802   0.6162   0.0519     H
H       0.4802   0.6338   0.1981     H
H       0.4802   0.6981   0.1338     H
C      0.48027  0.26973   0.8664     C
C      0.48027   0.3664  0.76973     C
C      0.48027   0.3836  0.98027     C
C      0.48027  0.48027   0.8836     C
C      0.48027  0.76973   0.3664     C
C      0.48027   0.8664  0.26973     C
C      0.48027   0.8836  0.48027     C
C      0.48027  0.98027   0.3836     C
C      0.48646  0.02899   0.6138     C
C      0.48646   0.1138  0.52899     C
C      0.48646   0.1362  0.72101     C
C      0.48646  0.22101   0.6362     C
C      0.48646  0.52899   0.1138     C
C      0.48646   0.6138  0.02899     C
C      0.48646   0.6362  0.22101     C
C      0.48646  0.72101   0.1362     C
H        0.489   0.0607   0.3943     H
H        0.489   0.1893   0.8557     H
H        0.489   0.3557   0.6893     H
H        0.489   0.3943   0.0607     H
H        0.489   0.5607   0.8943     H
H        0.489   0.6893   0.3557     H
H        0.489   0.8557   0.1893     H
H        0.489   0.8943   0.5607     H
C      0.49536   0.0378   0.3924     C
C      0.49536   0.2122   0.8576     C
C      0.49536   0.3576   0.7122     C
C      0.49536   0.3924   0.0378     C
C      0.49536   0.5378   0.8924     C
C      0.49536   0.7122   0.3576     C
C      0.49536   0.8576   0.2122     C
C      0.49536   0.8924   0.5378     C
C      0.50464   0.1076   0.4622     C
C      0.50464   0.1424   0.7878     C
C      0.50464   0.2878   0.6424     C
C      0.50464   0.4622   0.1076     C
C      0.50464   0.6076   0.9622     C
C      0.50464   0.6424   0.2878     C
C      0.50464   0.7878   0.1424     C
C      0.50464   0.9622   0.6076     C
H        0.511   0.1057   0.4393     H
H        0.511   0.1443   0.8107     H
H        0.511   0.3107   0.6443     H
H        0.511   0.4393   0.1057     H
H        0.511   0.6057   0.9393     H
H        0.511   0.6443   0.3107     H
H        0.511   0.8107   0.1443     H
H        0.511   0.9393   0.6057     H
C      0.51354  0.27899   0.8638     C
C      0.51354   0.3638  0.77899     C
C      0.51354   0.3862  0.97101     C
C      0.51354  0.47101   0.8862     C
C      0.51354  0.77899   0.3638     C
C      0.51354   0.8638  0.27899     C
C      0.51354   0.8862  0.47101     C
C      0.51354  0.97101   0.3862     C
C      0.51973  0.01973   0.6164     C
C      0.51973   0.1164  0.51973     C
C      0.51973   0.1336  0.73027     C
C      0.51973  0.23027   0.6336     C
C      0.51973  0.51973   0.1164     C
C      0.51973   0.6164  0.01973     C
C      0.51973   0.6336  0.23027     C
C      0.51973  0.73027   0.1336     C
H       0.5198   0.3019   0.8662     H
H       0.5198   0.3662   0.8019     H
H       0.5198   0.3838   0.9481     H
H       0.5198   0.4481   0.8838     H
H       0.5198   0.8019   0.3662     H
H       0.5198   0.8662   0.3019     H
H       0.5198   0.8838   0.4481     H
H       0.5198   0.9481   0.3838     H
C      0.52886  0.02886   0.3957     C
C      0.52886  0.22114   0.8543     C
C      0.52886   0.3543  0.72114     C
C      0.52886   0.3957  0.02886     C
C      0.52886  0.52886   0.8957     C
C      0.52886  0.72114   0.3543     C
C      0.52886   0.8543  0.22114     C
C      0.52886   0.8957  0.52886     C
C      0.52899   0.1138  0.48646     C
C      0.52899   0.1362  0.76354     C
C      0.52899  0.26354   0.6362     C
C      0.52899  0.48646   0.1138     C
C      0.52899   0.6138  0.98646     C
C      0.52899   0.6362  0.26354     C
C      0.52899  0.76354   0.1362     C
C      0.52899  0.98646   0.6138     C
O      0.53589  0.07618  0.62457     O
O      0.53589  0.12457  0.57618     O
O      0.53589  0.12543  0.67382     O
O      0.53589  0.17382  0.62543     O
O      0.53589  0.57618  0.12457     O
O      0.53589  0.62457  0.07618     O
O      0.53589  0.62543  0.17382     O
O      0.53589  0.67382  0.12543     O
C       0.5378  0.25464   0.8576     C
C       0.5378   0.3576  0.75464     C
C       0.5378   0.3924  0.99536     C
C       0.5378  0.49536   0.8924     C
C       0.5378  0.75464   0.3576     C
C       0.5378   0.8576  0.25464     C
C       0.5378   0.8924  0.49536     C
C       0.5378  0.99536   0.3924     C
C      0.54601  0.04601  0.62236     C
C      0.54601  0.12236  0.54601     C
C      0.54601  0.12764  0.70399     C
C      0.54601  0.20399  0.62764     C
C      0.54601  0.54601  0.12236     C
C      0.54601  0.62236  0.04601     C
C      0.54601  0.62764  0.20399     C
C      0.54601  0.70399  0.12764     C
H       0.5519   0.1162   0.4802     H
H       0.5519   0.1338   0.7698     H
H       0.5519   0.2698   0.6338     H
H       0.5519   0.4802   0.1162     H
H       0.5519   0.6162   0.9802     H
H       0.5519   0.6338   0.2698     H
H       0.5519   0.7698   0.1338     H
H       0.5519   0.9802   0.6162     H
C      0.55404  0.05404   0.4005     C
C      0.55404  0.19596   0.8495     C
C      0.55404   0.3495  0.69596     C
C      0.55404   0.4005  0.05404     C
C      0.55404  0.55404   0.9005     C
C      0.55404  0.69596   0.3495     C
C      0.55404   0.8495  0.19596     C
C      0.55404   0.9005  0.55404     C
O       0.5582   0.1079   0.8399     O
O       0.5582   0.1421   0.4101     O
O       0.5582   0.3399   0.6079     O
O       0.5582   0.4101   0.1421     O
O       0.5582   0.6079   0.3399     O
O       0.5582   0.6421   0.9101     O
O       0.5582   0.8399   0.1079     O
O       0.5582   0.9101   0.6421     O
H       0.5607    0.261   0.8557     H
H       0.5607   0.3557    0.761     H
H       0.5607   0.3943    0.989     H
H       0.5607    0.489   0.8943     H
H       0.5607    0.761   0.3557     H
H       0.5607   0.8557    0.261     H
H       0.5607   0.8943    0.489     H
H       0.5607    0.989   0.3943     H
Zr     0.56281    0.125    0.625    Zr
Zr     0.56281    0.625    0.125    Zr
C      0.57499  0.07499   0.4052     C
C      0.57499  0.17501   0.8448     C
C      0.57499   0.3448  0.67501     C
C      0.57499   0.4052  0.07499     C
C      0.57499  0.57499   0.9052     C
C      0.57499  0.67501   0.3448     C
C      0.57499   0.8448  0.17501     C
C      0.57499   0.9052  0.57499     C
O      0.57618  0.03589  0.62457     O
O      0.57618  0.12457  0.53589     O
O      0.57618  0.12543  0.71411     O
O      0.57618  0.21411  0.62543     O
O      0.57618  0.53589  0.12457     O
O      0.57618  0.62457  0.03589     O
O      0.57618  0.62543  0.21411     O
O      0.57618  0.71411  0.12543     O
O       0.5899   0.3082   0.8921     O
O       0.5899   0.3579   0.9418     O
O       0.5899   0.3921   0.8082     O
O       0.5899   0.4418   0.8579     O
O       0.5899   0.8082   0.3921     O
O       0.5899   0.8579   0.4418     O
O       0.5899   0.8921   0.3082     O
O       0.5899   0.9418   0.3579     O
C       0.5907  0.34142  0.88399     C
C       0.5907  0.36601  0.90858     C
C       0.5907  0.38399  0.84142     C
C       0.5907  0.40858  0.86601     C
C       0.5907  0.84142  0.38399     C
C       0.5907  0.86601  0.40858     C
C       0.5907  0.88399  0.34142     C
C       0.5907  0.90858  0.36601     C
C      0.59142  0.11601   0.8407     C
C      0.59142  0.13399   0.4093     C
C      0.59142   0.3407  0.61601     C
C      0.59142   0.4093  0.13399     C
C      0.59142  0.61601   0.3407     C
C      0.59142  0.63399   0.9093     C
C      0.59142   0.8407  0.11601     C
C      0.59142   0.9093  0.63399     C
C       0.5915  0.35022  0.85022     C
C       0.5915  0.39978  0.89978     C
C       0.5915  0.85022  0.35022     C
C       0.5915  0.89978  0.39978     C
O       0.5928   0.0928   0.6572     O
O       0.5928   0.1572   0.5928     O
O       0.5928   0.5928   0.1572     O
O       0.5928   0.6572   0.0928     O
C       0.5948  0.32499  0.82499     C
C       0.5948  0.42501  0.92501     C
C       0.5948  0.82499  0.32499     C
C       0.5948  0.92501  0.42501     C
O       0.5959   0.0959   0.5959     O
O       0.5959   0.1541   0.6541     O
O       0.5959   0.5959   0.0959     O
O       0.5959   0.6541   0.1541     O
C       0.5995  0.30404  0.80404     C
C       0.5995  0.44596  0.94596     C
C       0.5995  0.80404  0.30404     C
C       0.5995  0.94596  0.44596     C
C      0.60022  0.10022   0.4085     C
C      0.60022  0.14978   0.8415     C
C      0.60022   0.3415  0.64978     C
C      0.60022   0.4085  0.10022     C
C      0.60022  0.60022   0.9085     C
C      0.60022  0.64978   0.3415     C
C      0.60022   0.8415  0.14978     C
C      0.60022   0.9085  0.60022     C
C       0.6043  0.27886  0.77886     C
C       0.6043  0.47114  0.97114     C
C       0.6043  0.77886  0.27886     C
C       0.6043  0.97114  0.47114     C
H       0.6057    0.011   0.4393     H
H       0.6057    0.239   0.8107     H
H       0.6057   0.3107    0.739     H
H       0.6057   0.4393    0.011     H
H       0.6057    0.511   0.9393     H
H       0.6057    0.739   0.3107     H
H       0.6057   0.8107    0.239     H
H       0.6057   0.9393    0.511     H
C       0.6076  0.00464   0.4622     C
C       0.6076  0.24536   0.7878     C
C       0.6076   0.2878  0.74536     C
C       0.6076   0.4622  0.00464     C
C       0.6076  0.50464   0.9622     C
C       0.6076  0.74536   0.2878     C
C       0.6076   0.7878  0.24536     C
C       0.6076   0.9622  0.50464     C
O       0.6079   0.0582   0.8399     O
O       0.6079   0.1918   0.4101     O
O       0.6079   0.3399   0.5582     O
O       0.6079   0.4101   0.1918     O
O       0.6079   0.5582   0.3399     O
O       0.6079   0.6918   0.9101     O
O       0.6079   0.8399   0.0582     O
O       0.6079   0.9101   0.6918     O
C       0.6138  0.02899  0.48646     C
C       0.6138  0.22101  0.76354     C
C       0.6138  0.26354  0.72101     C
C       0.6138  0.48646  0.02899     C
C       0.6138  0.52899  0.98646     C
C       0.6138  0.72101  0.26354     C
C       0.6138  0.76354  0.22101     C
C       0.6138  0.98646  0.52899     C
C      0.61601  0.09142   0.8407     C
C      0.61601  0.15858   0.4093     C
C      0.61601   0.3407  0.59142     C
C      0.61601   0.4093  0.15858     C
C      0.61601  0.59142   0.3407     C
C      0.61601  0.65858   0.9093     C
C      0.61601   0.8407  0.09142     C
C      0.61601   0.9093  0.65858     C
H       0.6162   0.0519   0.4802     H
H       0.6162   0.1981   0.7698     H
H       0.6162   0.2698   0.6981     H
H       0.6162   0.4802   0.0519     H
H       0.6162   0.5519   0.9802     H
H       0.6162   0.6981   0.2698     H
H       0.6162   0.7698   0.1981     H
H       0.6162   0.9802   0.5519     H
C       0.6164  0.01973  0.51973     C
C       0.6164  0.23027  0.73027     C
C       0.6164  0.51973  0.01973     C
C       0.6164  0.73027  0.23027     C
C      0.62236  0.04601  0.54601     C
C      0.62236  0.20399  0.70399     C
C      0.62236  0.54601  0.04601     C
C      0.62236  0.70399  0.20399     C
O      0.62457  0.03589  0.57618     O
O      0.62457  0.07618  0.53589     O
O      0.62457  0.17382  0.71411     O
O      0.62457  0.21411  0.67382     O
O      0.62457  0.53589  0.07618     O
O      0.62457  0.57618  0.03589     O
O      0.62457  0.67382  0.21411     O
O      0.62457  0.71411  0.17382     O
Zr       0.625  0.06281    0.625    Zr
Zr       0.625    0.125  0.56281    Zr
Zr       0.625    0.125  0.68719    Zr
Zr       0.625  0.18719    0.625    Zr
Zr       0.625  0.56281    0.125    Zr
Zr       0.625    0.625  0.06281    Zr
Zr       0.625    0.625  0.18719    Zr
Zr       0.625  0.68719    0.125    Zr
O      0.62543  0.03589  0.67382     O
O      0.62543  0.07618  0.71411     O
O      0.62543  0.17382  0.53589     O
O      0.62543  0.21411  0.57618     O
O      0.62543  0.53589  0.17382     O
O      0.62543  0.57618  0.21411     O
O      0.62543  0.67382  0.03589     O
O      0.62543  0.71411  0.07618     O
C      0.62764  0.04601  0.70399     C
C      0.62764  0.20399  0.54601     C
C      0.62764  0.54601  0.20399     C
C      0.62764  0.70399  0.04601     C
C       0.6336  0.01973  0.73027     C
C       0.6336  0.23027  0.51973     C
C       0.6336  0.51973  0.23027     C
C       0.6336  0.73027  0.01973     C
H       0.6338   0.0519   0.7698     H
H       0.6338   0.1981   0.4802     H
H       0.6338   0.2698   0.5519     H
H       0.6338   0.4802   0.1981     H
H       0.6338   0.5519   0.2698     H
H       0.6338   0.6981   0.9802     H
H       0.6338   0.7698   0.0519     H
H       0.6338   0.9802   0.6981     H
C      0.63399  0.09142   0.4093     C
C      0.63399  0.15858   0.8407     C
C      0.63399   0.3407  0.65858     C
C      0.63399   0.4093  0.09142     C
C      0.63399  0.59142   0.9093     C
C      0.63399  0.65858   0.3407     C
C      0.63399   0.8407  0.15858     C
C      0.63399   0.9093  0.59142     C
C       0.6362  0.02899  0.76354     C
C       0.6362  0.22101  0.48646     C
C       0.6362  0.26354  0.52899     C
C       0.6362  0.48646  0.22101     C
C       0.6362  0.52899  0.26354     C
C       0.6362  0.72101  0.98646     C
C       0.6362  0.76354  0.02899     C
C       0.6362  0.98646  0.72101     C
O       0.6421   0.0582   0.4101     O
O       0.6421   0.1918   0.8399     O
O       0.6421   0.3399   0.6918     O
O       0.6421   0.4101   0.0582     O
O       0.6421   0.5582   0.9101     O
O       0.6421   0.6918   0.3399     O
O       0.6421   0.8399   0.1918     O
O       0.6421   0.9101   0.5582     O
C       0.6424  0.00464   0.7878     C
C       0.6424  0.24536   0.4622     C
C       0.6424   0.2878  0.50464     C
C       0.6424   0.4622  0.24536     C
C       0.6424  0.50464   0.2878     C
C       0.6424  0.74536   0.9622     C
C       0.6424   0.7878  0.00464     C
C       0.6424   0.9622  0.74536     C
H       0.6443    0.011   0.8107     H
H       0.6443    0.239   0.4393     H
H       0.6443   0.3107    0.511     H
H       0.6443   0.4393    0.239     H
H       0.6443    0.511   0.3107     H
H       0.6443    0.739   0.9393     H
H       0.6443   0.8107    0.011     H
H       0.6443   0.9393    0.739     H
C       0.6457  0.27886  0.47114     C
C       0.6457  0.47114  0.27886     C
C       0.6457  0.77886  0.97114     C
C       0.6457  0.97114  0.77886     C
C      0.64978  0.10022   0.8415     C
C      0.64978  0.14978   0.4085     C
C      0.64978   0.3415  0.60022     C
C      0.64978   0.4085  0.14978     C
C      0.64978  0.60022   0.3415     C
C      0.64978  0.64978   0.9085     C
C      0.64978   0.8415  0.10022     C
C      0.64978   0.9085  0.64978     C
C       0.6505  0.30404  0.44596     C
C       0.6505  0.44596  0.30404     C
C       0.6505  0.80404  0.94596     C
C       0.6505  0.94596  0.80404     C
O       0.6541   0.0959   0.6541     O
O       0.6541   0.1541   0.5959     O
O       0.6541   0.5959   0.1541     O
O       0.6541   0.6541   0.0959     O
C       0.6552  0.32499  0.42501     C
C       0.6552  0.42501  0.32499     C
C       0.6552  0.82499  0.92501     C
C       0.6552  0.92501  0.82499     C
O       0.6572   0.0928   0.5928     O
O       0.6572   0.1572   0.6572     O
O       0.6572   0.5928   0.0928     O
O       0.6572   0.6572   0.1572     O
C       0.6585  0.35022  0.39978     C
C       0.6585  0.39978  0.35022     C
C       0.6585  0.85022  0.89978     C
C       0.6585  0.89978  0.85022     C
C      0.65858  0.11601   0.4093     C
C      0.65858  0.13399   0.8407     C
C      0.65858   0.3407  0.63399     C
C      0.65858   0.4093  0.11601     C
C      0.65858  0.61601   0.9093     C
C      0.65858  0.63399   0.3407     C
C      0.65858   0.8407  0.13399     C
C      0.65858   0.9093  0.61601     C
C       0.6593  0.34142  0.36601     C
C       0.6593  0.36601  0.34142     C
C       0.6593  0.38399  0.40858     C
C       0.6593  0.40858  0.38399     C
C       0.6593  0.84142  0.86601     C
C       0.6593  0.86601  0.84142     C
C       0.6593  0.88399  0.90858     C
C       0.6593  0.90858  0.88399     C
O       0.6601   0.3082   0.3579     O
O       0.6601   0.3579   0.3082     O
O       0.6601   0.3921   0.4418     O
O       0.6601   0.4418   0.3921     O
O       0.6601   0.8082   0.8579     O
O       0.6601   0.8579   0.8082     O
O       0.6601   0.8921   0.9418     O
O       0.6601   0.9418   0.8921     O
O      0.67382  0.03589  0.62543     O
O      0.67382  0.12457  0.71411     O
O      0.67382  0.12543  0.53589     O
O      0.67382  0.21411  0.62457     O
O      0.67382  0.53589  0.12543     O
O      0.67382  0.62457  0.21411     O
O      0.67382  0.62543  0.03589     O
O      0.67382  0.71411  0.12457     O
C      0.67501  0.07499   0.8448     C
C      0.67501  0.17501   0.4052     C
C      0.67501   0.3448  0.57499     C
C      0.67501   0.4052  0.17501     C
C      0.67501  0.57499   0.3448     C
C      0.67501  0.67501   0.9052     C
C      0.67501   0.8448  0.07499     C
C      0.67501   0.9052  0.67501     C
Zr     0.68719    0.125    0.625    Zr
Zr     0.68719    0.625    0.125    Zr
H       0.6893    0.261   0.3943     H
H       0.6893   0.3557    0.489     H
H       0.6893   0.3943    0.261     H
H       0.6893    0.489   0.3557     H
H       0.6893    0.761   0.8943     H
H       0.6893   0.8557    0.989     H
H       0.6893   0.8943    0.761     H
H       0.6893    0.989   0.8557     H
O       0.6918   0.1079   0.4101     O
O       0.6918   0.1421   0.8399     O
O       0.6918   0.3399   0.6421     O
O       0.6918   0.4101   0.1079     O
O       0.6918   0.6079   0.9101     O
O       0.6918   0.6421   0.3399     O
O       0.6918   0.8399   0.1421     O
O       0.6918   0.9101   0.6079     O
C      0.69596  0.05404   0.8495     C
C      0.69596  0.19596   0.4005     C
C      0.69596   0.3495  0.55404     C
C      0.69596   0.4005  0.19596     C
C      0.69596  0.55404   0.3495     C
C      0.69596  0.69596   0.9005     C
C      0.69596   0.8495  0.05404     C
C      0.69596   0.9005  0.69596     C
H       0.6981   0.1162   0.7698     H
H       0.6981   0.1338   0.4802     H
H       0.6981   0.2698   0.6162     H
H       0.6981   0.4802   0.1338     H
H       0.6981   0.6162   0.2698     H
H       0.6981   0.6338   0.9802     H
H       0.6981   0.7698   0.1162     H
H       0.6981   0.9802   0.6338     H
C      0.70399  0.04601  0.62764     C
C      0.70399  0.12236  0.70399     C
C      0.70399  0.12764  0.54601     C
C      0.70399  0.20399  0.62236     C
C      0.70399  0.54601  0.12764     C
C      0.70399  0.62236  0.20399     C
C      0.70399  0.62764  0.04601     C
C      0.70399  0.70399  0.12236     C
C       0.7122  0.25464   0.3924     C
C       0.7122   0.3576  0.49536     C
C       0.7122   0.3924  0.25464     C
C       0.7122  0.49536   0.3576     C
C       0.7122  0.75464   0.8924     C
C       0.7122   0.8576  0.99536     C
C       0.7122   0.8924  0.75464     C
C       0.7122  0.99536   0.8576     C
O      0.71411  0.07618  0.62543     O
O      0.71411  0.12457  0.67382     O
O      0.71411  0.12543  0.57618     O
O      0.71411  0.17382  0.62457     O
O      0.71411  0.57618  0.12543     O
O      0.71411  0.62457  0.17382     O
O      0.71411  0.62543  0.07618     O
O      0.71411  0.67382  0.12457     O
C      0.72101   0.1138  0.76354     C
C      0.72101   0.1362  0.48646     C
C      0.72101  0.26354   0.6138     C
C      0.72101  0.48646   0.1362     C
C      0.72101   0.6138  0.26354     C
C      0.72101   0.6362  0.98646     C
C      0.72101  0.76354   0.1138     C
C      0.72101  0.98646   0.6362     C
C      0.72114  0.02886   0.8543     C
C      0.72114  0.22114   0.3957     C
C      0.72114   0.3543  0.52886     C
C      0.72114   0.3957  0.22114     C
C      0.72114  0.52886   0.3543     C
C      0.72114  0.72114   0.8957     C
C      0.72114   0.8543  0.02886     C
C      0.72114   0.8957  0.72114     C
H       0.7302   0.3019   0.3838     H
H       0.7302   0.3662   0.4481     H
H       0.7302   0.3838   0.3019     H
H       0.7302   0.4481   0.3662     H
H       0.7302   0.8019   0.8838     H
H       0.7302   0.8662   0.9481     H
H       0.7302   0.8838   0.8019     H
H       0.7302   0.9481   0.8662     H
C      0.73027  0.01973   0.6336     C
C      0.73027   0.1164  0.73027     C
C      0.73027   0.1336  0.51973     C
C      0.73027  0.23027   0.6164     C
C      0.73027  0.51973   0.1336     C
C      0.73027   0.6164  0.23027     C
C      0.73027   0.6336  0.01973     C
C      0.73027  0.73027   0.1164     C
C      0.73646  0.27899   0.3862     C
C      0.73646   0.3638  0.47101     C
C      0.73646   0.3862  0.27899     C
C      0.73646  0.47101   0.3638     C
C      0.73646  0.77899   0.8862     C
C      0.73646   0.8638  0.97101     C
C      0.73646   0.8862  0.77899     C
C      0.73646  0.97101   0.8638     C
H        0.739   0.1057   0.8107     H
H        0.739   0.1443   0.4393     H
H        0.739   0.3107   0.6057     H
H        0.739   0.4393   0.1443     H
H        0.739   0.6057   0.3107     H
H        0.739   0.6443   0.9393     H
H        0.739   0.8107   0.1057     H
H        0.739   0.9393   0.6443     H
C      0.74536   0.1076   0.7878     C
C      0.74536   0.1424   0.4622     C
C      0.74536   0.2878   0.6076     C
C      0.74536   0.4622   0.1424     C
C      0.74536   0.6076   0.2878     C
C      0.74536   0.6424   0.9622     C
C      0.74536   0.7878   0.1076     C
C      0.74536   0.9622   0.6424     C
C      0.75464   0.0378   0.8576     C
C      0.75464   0.2122   0.3924     C
C      0.75464   0.3576   0.5378     C
C      0.75464   0.3924   0.2122     C
C      0.75464   0.5378   0.3576     C
C      0.75464   0.7122   0.8924     C
C      0.75464   0.8576   0.0378     C
C      0.75464   0.8924   0.7122     C
H        0.761   0.0607   0.8557     H
H        0.761   0.1893   0.3943     H
H        0.761   0.3557   0.5607     H
H        0.761   0.3943   0.1893     H
H        0.761   0.5607   0.3557     H
H        0.761   0.6893   0.8943     H
H        0.761   0.8557   0.0607     H
H        0.761   0.8943   0.6893     H
C      0.76354  0.02899   0.6362     C
C      0.76354   0.1138  0.72101     C
C      0.76354   0.1362  0.52899     C
C      0.76354  0.22101   0.6138     C
C      0.76354  0.52899   0.1362     C
C      0.76354   0.6138  0.22101     C
C      0.76354   0.6362  0.02899     C
C      0.76354  0.72101   0.1138     C
C      0.76973  0.26973   0.3836     C
C      0.76973   0.3664  0.48027     C
C      0.76973   0.3836  0.26973     C
C      0.76973  0.48027   0.3664     C
C      0.76973  0.76973   0.8836     C
C      0.76973   0.8664  0.98027     C
C      0.76973   0.8836  0.76973     C
C      0.76973  0.98027   0.8664     C
H       0.7698   0.0519   0.6338     H
H       0.7698   0.1162   0.6981     H
H       0.7698   0.1338   0.5519     H
H       0.7698   0.1981   0.6162     H
H       0.7698   0.5519   0.1338     H
H       0.7698   0.6162   0.1981     H
H       0.7698   0.6338   0.0519     H
H       0.7698   0.6981   0.1162     H
C      0.77886   0.1043  0.77886     C
C      0.77886   0.1457  0.47114     C
C      0.77886  0.27886   0.6043     C
C      0.77886  0.47114   0.1457     C
C      0.77886   0.6043  0.27886     C
C      0.77886   0.6457  0.97114     C
C      0.77886  0.77886   0.1043     C
C      0.77886  0.97114   0.6457     C
C      0.77899  0.01354   0.8638     C
C      0.77899  0.23646   0.3862     C
C      0.77899   0.3638  0.51354     C
C      0.77899   0.3862  0.23646     C
C      0.77899  0.51354   0.3638     C
C      0.77899  0.73646   0.8862     C
C      0.77899   0.8638  0.01354     C
C      0.77899   0.8862  0.73646     C
O      0.78589  0.32618  0.37543     O
O      0.78589  0.37457  0.42382     O
O      0.78589  0.37543  0.32618     O
O      0.78589  0.42382  0.37457     O
O      0.78589  0.82618  0.87543     O
O      0.78589  0.87457  0.92382     O
O      0.78589  0.87543  0.82618     O
O      0.78589  0.92382  0.87457     O
C       0.7878  0.00464   0.6424     C
C       0.7878   0.1076  0.74536     C
C       0.7878   0.1424  0.50464     C
C       0.7878  0.24536   0.6076     C
C       0.7878  0.50464   0.1424     C
C       0.7878   0.6076  0.24536     C
C       0.7878   0.6424  0.00464     C
C       0.7878  0.74536   0.1076     C
C      0.79601  0.29601  0.37764     C
C      0.79601  0.37236  0.45399     C
C      0.79601  0.37764  0.29601     C
C      0.79601  0.45399  0.37236     C
C      0.79601  0.79601  0.87764     C
C      0.79601  0.87236  0.95399     C
C      0.79601  0.87764  0.79601     C
C      0.79601  0.95399  0.87236     C
H       0.8019   0.0198   0.8662     H
H       0.8019   0.2302   0.3838     H
H       0.8019   0.3662   0.5198     H
H       0.8019   0.3838   0.2302     H
H       0.8019   0.5198   0.3662     H
H       0.8019   0.7302   0.8838     H
H       0.8019   0.8662   0.0198     H
H       0.8019   0.8838   0.7302     H
C      0.80404   0.0995  0.80404     C
C      0.80404   0.1505  0.44596     C
C      0.80404  0.30404   0.5995     C
C      0.80404  0.44596   0.1505     C
C      0.80404   0.5995  0.30404     C
C      0.80404   0.6505  0.94596     C
C      0.80404  0.80404   0.0995     C
C      0.80404  0.94596   0.6505     C
O       0.8082   0.0899   0.8921     O
O       0.8082   0.1601   0.3579     O
O       0.8082   0.3579   0.1601     O
O       0.8082   0.3921   0.5899     O
O       0.8082   0.5899   0.3921     O
O       0.8082   0.6601   0.8579     O
O       0.8082   0.8579   0.6601     O
O       0.8082   0.8921   0.0899     O
H       0.8107    0.011   0.6443     H
H       0.8107   0.1057    0.739     H
H       0.8107   0.1443    0.511     H
H       0.8107    0.239   0.6057     H
H       0.8107    0.511   0.1443     H
H       0.8107   0.6057    0.239     H
H       0.8107   0.6443    0.011     H
H       0.8107    0.739   0.1057     H
Zr     0.81281    0.375    0.375    Zr
Zr     0.81281    0.875    0.875    Zr
C      0.82499   0.0948  0.82499     C
C      0.82499   0.1552  0.42501     C
C      0.82499  0.32499   0.5948     C
C      0.82499  0.42501   0.1552     C
C      0.82499   0.5948  0.32499     C
C      0.82499   0.6552  0.92501     C
C      0.82499  0.82499   0.0948     C
C      0.82499  0.92501   0.6552     C
O      0.82618  0.28589  0.37543     O
O      0.82618  0.37457  0.46411     O
O      0.82618  0.37543  0.28589     O
O      0.82618  0.46411  0.37457     O
O      0.82618  0.78589  0.87543     O
O      0.82618  0.87457  0.96411     O
O      0.82618  0.87543  0.78589     O
O      0.82618  0.96411  0.87457     O
O       0.8399   0.0582   0.6079     O
O       0.8399   0.1079   0.5582     O
O       0.8399   0.1421   0.6918     O
O       0.8399   0.1918   0.6421     O
O       0.8399   0.5582   0.1079     O
O       0.8399   0.6079   0.0582     O
O       0.8399   0.6421   0.1918     O
O       0.8399   0.6918   0.1421     O
C       0.8407  0.09142  0.61601     C
C       0.8407  0.11601  0.59142     C
C       0.8407  0.13399  0.65858     C
C       0.8407  0.15858  0.63399     C
C       0.8407  0.59142  0.11601     C
C       0.8407  0.61601  0.09142     C
C       0.8407  0.63399  0.15858     C
C       0.8407  0.65858  0.13399     C
C      0.84142   0.0907  0.88399     C
C      0.84142   0.1593  0.36601     C
C      0.84142  0.36601   0.1593     C
C      0.84142  0.38399   0.5907     C
C      0.84142   0.5907  0.38399     C
C      0.84142   0.6593  0.86601     C
C      0.84142  0.86601   0.6593     C
C      0.84142  0.88399   0.0907     C
C       0.8415  0.10022  0.64978     C
C       0.8415  0.14978  0.60022     C
C       0.8415  0.60022  0.14978     C
C       0.8415  0.64978  0.10022     C
O       0.8428   0.3428   0.3428     O
O       0.8428   0.4072   0.4072     O
O       0.8428   0.8428   0.8428     O
O       0.8428   0.9072   0.9072     O
C       0.8448  0.07499  0.67501     C
C       0.8448  0.17501  0.57499     C
C       0.8448  0.57499  0.17501     C
C       0.8448  0.67501  0.07499     C
O       0.8459   0.3459   0.4041     O
O       0.8459   0.4041   0.3459     O
O       0.8459   0.8459   0.9041     O
O       0.8459   0.9041   0.8459     O
C       0.8495  0.05404  0.69596     C
C       0.8495  0.19596  0.55404     C
C       0.8495  0.55404  0.19596     C
C       0.8495  0.69596  0.05404     C
C      0.85022   0.0915  0.85022     C
C      0.85022   0.1585  0.39978     C
C      0.85022  0.35022   0.5915     C
C      0.85022  0.39978   0.1585     C
C      0.85022   0.5915  0.35022     C
C      0.85022   0.6585  0.89978     C
C      0.85022  0.85022   0.0915     C
C      0.85022  0.89978   0.6585     C
C       0.8543  0.02886  0.72114     C
C       0.8543  0.22114  0.52886     C
C       0.8543  0.52886  0.22114     C
C       0.8543  0.72114  0.02886     C
H       0.8557   0.0607    0.761     H
H       0.8557   0.1893    0.489     H
H       0.8557    0.261   0.5607     H
H       0.8557    0.489   0.1893     H
H       0.8557   0.5607    0.261     H
H       0.8557   0.6893    0.989     H
H       0.8557    0.761   0.0607     H
H       0.8557    0.989   0.6893     H
C       0.8576   0.0378  0.75464     C
C       0.8576   0.2122  0.49536     C
C       0.8576  0.25464   0.5378     C
C       0.8576  0.49536   0.2122     C
C       0.8576   0.5378  0.25464     C
C       0.8576   0.7122  0.99536     C
C       0.8576  0.75464   0.0378     C
C       0.8576  0.99536   0.7122     C
O       0.8579   0.0899   0.9418     O
O       0.8579   0.1601   0.3082     O
O       0.8579   0.3082   0.1601     O
O       0.8579   0.4418   0.5899     O
O       0.8579   0.5899   0.4418     O
O       0.8579   0.6601   0.8082     O
O       0.8579   0.8082   0.6601     O
O       0.8579   0.9418   0.0899     O
C       0.8638  0.01354  0.77899     C
C       0.8638  0.23646  0.47101     C
C       0.8638  0.27899  0.51354     C
C       0.8638  0.47101  0.23646     C
C       0.8638  0.51354  0.27899     C
C       0.8638  0.73646  0.97101     C
C       0.8638  0.77899  0.01354     C
C       0.8638  0.97101  0.73646     C
C      0.86601   0.0907  0.90858     C
C      0.86601   0.1593  0.34142     C
C      0.86601  0.34142   0.1593     C
C      0.86601  0.40858   0.5907     C
C      0.86601   0.5907  0.40858     C
C      0.86601   0.6593  0.84142     C
C      0.86601  0.84142   0.6593     C
C      0.86601  0.90858   0.0907     C
H       0.8662   0.0198   0.8019     H
H       0.8662   0.2302   0.4481     H
H       0.8662   0.3019   0.5198     H
H       0.8662   0.4481   0.2302     H
H       0.8662   0.5198   0.3019     H
H       0.8662   0.7302   0.9481     H
H       0.8662   0.8019   0.0198     H
H       0.8662   0.9481   0.7302     H
C       0.8664  0.26973  0.48027     C
C       0.8664  0.48027  0.26973     C
C       0.8664  0.76973  0.98027     C
C       0.8664  0.98027  0.76973     C
C      0.87236  0.29601  0.45399     C
C      0.87236  0.45399  0.29601     C
C      0.87236  0.79601  0.95399     C
C      0.87236  0.95399  0.79601     C
O      0.87457  0.28589  0.42382     O
O      0.87457  0.32618  0.46411     O
O      0.87457  0.42382  0.28589     O
O      0.87457  0.46411  0.32618     O
O      0.87457  0.78589  0.92382     O
O      0.87457  0.82618  0.96411     O
O      0.87457  0.92382  0.78589     O
O      0.87457  0.96411  0.82618     O
Zr       0.875  0.31281    0.375    Zr
Zr       0.875    0.375  0.31281    Zr
Zr       0.875    0.375  0.43719    Zr
Zr       0.875  0.43719    0.375    Zr
Zr       0.875  0.81281    0.875    Zr
Zr       0.875    0.875  0.81281    Zr
Zr       0.875    0.875  0.93719    Zr
Zr       0.875  0.93719    0.875    Zr
O      0.87543  0.28589  0.32618     O
O      0.87543  0.32618  0.28589     O
O      0.87543  0.42382  0.46411     O
O      0.87543  0.46411  0.42382     O
O      0.87543  0.78589  0.82618     O
O      0.87543  0.82618  0.78589     O
O      0.87543  0.92382  0.96411     O
O      0.87543  0.96411  0.92382     O
C      0.87764  0.29601  0.29601     C
C      0.87764  0.45399  0.45399     C
C      0.87764  0.79601  0.79601     C
C      0.87764  0.95399  0.95399     C
C       0.8836  0.26973  0.26973     C
C       0.8836  0.48027  0.48027     C
C       0.8836  0.76973  0.76973     C
C       0.8836  0.98027  0.98027     C
H       0.8838   0.0198   0.9481     H
H       0.8838   0.2302   0.3019     H
H       0.8838   0.3019   0.2302     H
H       0.8838   0.4481   0.5198     H
H       0.8838   0.5198   0.4481     H
H       0.8838   0.7302   0.8019     H
H       0.8838   0.8019   0.7302     H
H       0.8838   0.9481   0.0198     H
C      0.88399   0.0907  0.84142     C
C      0.88399   0.1593  0.40858     C
C      0.88399  0.34142   0.5907     C
C      0.88399  0.40858   0.1593     C
C      0.88399   0.5907  0.34142     C
C      0.88399   0.6593  0.90858     C
C      0.88399  0.84142   0.0907     C
C      0.88399  0.90858   0.6593     C
C       0.8862  0.01354  0.97101     C
C       0.8862  0.23646  0.27899     C
C       0.8862  0.27899  0.23646     C
C       0.8862  0.47101  0.51354     C
C       0.8862  0.51354  0.47101     C
C       0.8862  0.73646  0.77899     C
C       0.8862  0.77899  0.73646     C
C       0.8862  0.97101  0.01354     C
O       0.8921   0.0899   0.8082     O
O       0.8921   0.1601   0.4418     O
O       0.8921   0.3082   0.5899     O
O       0.8921   0.4418   0.1601     O
O       0.8921   0.5899   0.3082     O
O       0.8921   0.6601   0.9418     O
O       0.8921   0.8082   0.0899     O
O       0.8921   0.9418   0.6601     O
C       0.8924   0.0378  0.99536     C
C       0.8924   0.2122  0.25464     C
C       0.8924  0.25464   0.2122     C
C       0.8924  0.49536   0.5378     C
C       0.8924   0.5378  0.49536     C
C       0.8924   0.7122  0.75464     C
C       0.8924  0.75464   0.7122     C
C       0.8924  0.99536   0.0378     C
H       0.8943   0.0607    0.989     H
H       0.8943   0.1893    0.261     H
H       0.8943    0.261   0.1893     H
H       0.8943    0.489   0.5607     H
H       0.8943   0.5607    0.489     H
H       0.8943   0.6893    0.761     H
H       0.8943    0.761   0.6893     H
H       0.8943    0.989   0.0607     H
C       0.8957  0.02886  0.02886     C
C       0.8957  0.22114  0.22114     C
C       0.8957  0.52886  0.52886     C
C       0.8957  0.72114  0.72114     C
C      0.89978   0.0915  0.89978     C
C      0.89978   0.1585  0.35022     C
C      0.89978  0.35022   0.1585     C
C      0.89978  0.39978   0.5915     C
C      0.89978   0.5915  0.39978     C
C      0.89978   0.6585  0.85022     C
C      0.89978  0.85022   0.6585     C
C      0.89978  0.89978   0.0915     C
C       0.9005  0.05404  0.05404     C
C       0.9005  0.19596  0.19596     C
C       0.9005  0.55404  0.55404     C
C       0.9005  0.69596  0.69596     C
O       0.9041   0.3459   0.3459     O
O       0.9041   0.4041   0.4041     O
O       0.9041   0.8459   0.8459     O
O       0.9041   0.9041   0.9041     O
C       0.9052  0.07499  0.07499     C
C       0.9052  0.17501  0.17501     C
C       0.9052  0.57499  0.57499     C
C       0.9052  0.67501  0.67501     C
O       0.9072   0.3428   0.4072     O
O       0.9072   0.4072   0.3428     O
O       0.9072   0.8428   0.9072     O
O       0.9072   0.9072   0.8428     O
C       0.9085  0.10022  0.10022     C
C       0.9085  0.14978  0.14978     C
C       0.9085  0.60022  0.60022     C
C       0.9085  0.64978  0.64978     C
C      0.90858   0.0907  0.86601     C
C      0.90858   0.1593  0.38399     C
C      0.90858  0.36601   0.5907     C
C      0.90858  0.38399   0.1593     C
C      0.90858   0.5907  0.36601     C
C      0.90858   0.6593  0.88399     C
C      0.90858  0.86601   0.0907     C
C      0.90858  0.88399   0.6593     C
C       0.9093  0.09142  0.13399     C
C       0.9093  0.11601  0.15858     C
C       0.9093  0.13399  0.09142     C
C       0.9093  0.15858  0.11601     C
C       0.9093  0.59142  0.63399     C
C       0.9093  0.61601  0.65858     C
C       0.9093  0.63399  0.59142     C
C       0.9093  0.65858  0.61601     C
O       0.9101   0.0582   0.1421     O
O       0.9101   0.1079   0.1918     O
O       0.9101   0.1421   0.0582     O
O       0.9101   0.1918   0.1079     O
O       0.9101   0.5582   0.6421     O
O       0.9101   0.6079   0.6918     O
O       0.9101   0.6421   0.5582     O
O       0.9101   0.6918   0.6079     O
O      0.92382  0.28589  0.37457     O
O      0.92382  0.37457  0.28589     O
O      0.92382  0.37543  0.46411     O
O      0.92382  0.46411  0.37543     O
O      0.92382  0.78589  0.87457     O
O      0.92382  0.87457  0.78589     O
O      0.92382  0.87543  0.96411     O
O      0.92382  0.96411  0.87543     O
C      0.92501   0.0948  0.92501     C
C      0.92501   0.1552  0.32499     C
C      0.92501  0.32499   0.1552     C
C      0.92501  0.42501   0.5948     C
C      0.92501   0.5948  0.42501     C
C      0.92501   0.6552  0.82499     C
C      0.92501  0.82499   0.6552     C
C      0.92501  0.92501   0.0948     C
Zr     0.93719    0.375    0.375    Zr
Zr     0.93719    0.875    0.875    Zr
H       0.9393    0.011   0.1057     H
H       0.9393   0.1057    0.011     H
H       0.9393   0.1443    0.239     H
H       0.9393    0.239   0.1443     H
H       0.9393    0.511   0.6057     H
H       0.9393   0.6057    0.511     H
H       0.9393   0.6443    0.739     H
H       0.9393    0.739   0.6443     H
O       0.9418   0.0899   0.8579     O
O       0.9418   0.1601   0.3921     O
O       0.9418   0.3579   0.5899     O
O       0.9418   0.3921   0.1601     O
O       0.9418   0.5899   0.3579     O
O       0.9418   0.6601   0.8921     O
O       0.9418   0.8579   0.0899     O
O       0.9418   0.8921   0.6601     O
C      0.94596   0.0995  0.94596     C
C      0.94596   0.1505  0.30404     C
C      0.94596  0.30404   0.1505     C
C      0.94596  0.44596   0.5995     C
C      0.94596   0.5995  0.44596     C
C      0.94596   0.6505  0.80404     C
C      0.94596  0.80404   0.6505     C
C      0.94596  0.94596   0.0995     C
H       0.9481   0.0198   0.8838     H
H       0.9481   0.2302   0.3662     H
H       0.9481   0.3662   0.2302     H
H       0.9481   0.3838   0.5198     H
H       0.9481   0.5198   0.3838     H
H       0.9481   0.7302   0.8662     H
H       0.9481   0.8662   0.7302     H
H       0.9481   0.8838   0.0198     H
C      0.95399  0.29601  0.37236     C
C      0.95399  0.37236  0.29601     C
C      0.95399  0.37764  0.45399     C
C      0.95399  0.45399  0.37764     C
C      0.95399  0.79601  0.87236     C
C      0.95399  0.87236  0.79601     C
C      0.95399  0.87764  0.95399     C
C      0.95399  0.95399  0.87764     C
C       0.9622  0.00464   0.1076     C
C       0.9622   0.1076  0.00464     C
C       0.9622   0.1424  0.24536     C
C       0.9622  0.24536   0.1424     C
C       0.9622  0.50464   0.6076     C
C       0.9622   0.6076  0.50464     C
C       0.9622   0.6424  0.74536     C
C       0.9622  0.74536   0.6424     C
O      0.96411  0.32618  0.37457     O
O      0.96411  0.37457  0.32618     O
O      0.96411  0.37543  0.42382     O
O      0.96411  0.42382  0.37543     O
O      0.96411  0.82618  0.87457     O
O      0.96411  0.87457  0.82618     O
O      0.96411  0.87543  0.92382     O
O      0.96411  0.92382  0.87543     O
C      0.97101  0.01354   0.8862     C
C      0.97101  0.23646   0.3638     C
C      0.97101   0.3638  0.23646     C
C      0.97101   0.3862  0.51354     C
C      0.97101  0.51354   0.3862     C
C      0.97101  0.73646   0.8638     C
C      0.97101   0.8638  0.73646     C
C      0.97101   0.8862  0.01354     C
C      0.97114   0.1043  0.97114     C
C      0.97114   0.1457  0.27886     C
C      0.97114  0.27886   0.1457     C
C      0.97114  0.47114   0.6043     C
C      0.97114   0.6043  0.47114     C
C      0.97114   0.6457  0.77886     C
C      0.97114  0.77886   0.6457     C
C      0.97114  0.97114   0.1043     C
H       0.9802   0.0519   0.1162     H
H       0.9802   0.1162   0.0519     H
H       0.9802   0.1338   0.1981     H
H       0.9802   0.1981   0.1338     H
H       0.9802   0.5519   0.6162     H
H       0.9802   0.6162   0.5519     H
H       0.9802   0.6338   0.6981     H
H       0.9802   0.6981   0.6338     H
C      0.98027  0.26973   0.3664     C
C      0.98027   0.3664  0.26973     C
C      0.98027   0.3836  0.48027     C
C      0.98027  0.48027   0.3836     C
C      0.98027  0.76973   0.8664     C
C      0.98027   0.8664  0.76973     C
C      0.98027   0.8836  0.98027     C
C      0.98027  0.98027   0.8836     C
C      0.98646  0.02899   0.1138     C
C      0.98646   0.1138  0.02899     C
C      0.98646   0.1362  0.22101     C
C      0.98646  0.22101   0.1362     C
C      0.98646  0.52899   0.6138     C
C      0.98646   0.6138  0.52899     C
C      0.98646   0.6362  0.72101     C
C      0.98646  0.72101   0.6362     C
H        0.989   0.0607   0.8943     H
H        0.989   0.1893   0.3557     H
H        0.989   0.3557   0.1893     H
H        0.989   0.3943   0.5607     H
H        0.989   0.5607   0.3943     H
H        0.989   0.6893   0.8557     H
H        0.989   0.8557   0.6893     H
H        0.989   0.8943   0.0607     H
C      0.99536   0.0378   0.8924     C
C      0.99536   0.2122   0.3576     C
C      0.99536   0.3576   0.2122     C
C      0.99536   0.3924   0.5378     C
C      0.99536   0.5378   0.3924     C
C      0.99536   0.7122   0.8576     C
C      0.99536   0.8576   0.7122     C
C      0.99536   0.8924   0.0378     C
