data_I
_chemical_name_common  '/home/zhangsd/repos/MofS-CGCNN/ML/data/WS24/clean_cifs/PCN-58'
_cell_length_a 32.69191
_cell_length_b 32.69191
_cell_length_c 32.69191
_cell_angle_alpha 90.00000
_cell_angle_beta  90.00000
_cell_angle_gamma 90.00000
_space_group_name_H-M_alt      'P 1'


loop_
_space_group_symop_operation_xyz
  'x, y, z' 

loop_
_atom_site_label
_atom_site_fract_x
_atom_site_fract_y
_atom_site_fract_z
_atom_site_type_symbol
Zr    -0.0752473      0.0      0.0    Zr
Zr    -0.0752473      0.0      1.0    Zr
Zr    -0.0752473      0.5      0.5    Zr
Zr    -0.0752473      1.0      0.0    Zr
H     -0.0642838 0.223537 0.776466     H
H     -0.0642838 0.776466 0.223537     H
H     -0.0642833 0.223538 0.223538     H
H     -0.0642833 0.723538 0.723538     H
O     -0.058967      0.0 0.108473     O
O     -0.058967      0.0 0.891533     O
O     -0.058967 0.108473      0.0     O
O     -0.058967 0.391533      0.5     O
O     -0.058967      0.5 0.391533     O
O     -0.058967      0.5 0.608473     O
O     -0.058967 0.608473      0.5     O
O     -0.058967 0.891533      0.0     O
O     -0.036666 -0.036666 0.036674     O
O     -0.036666 -0.036666 0.963334     O
O     -0.036666 0.036674 -0.036666     O
O     -0.036666 0.036674 0.036674     O
O     -0.036666 0.463334 0.463334     O
O     -0.036666 0.463334 0.536674     O
O     -0.036666 0.536674 0.463334     O
O     -0.036666 0.536674 0.536674     O
C     -0.035344 0.235203 0.235203     C
C     -0.035344 0.235203 0.764803     C
C     -0.035344 0.264803 0.264803     C
C     -0.035344 0.264803 0.735203     C
C     -0.035344 0.735203 0.264803     C
C     -0.035344 0.735203 0.735203     C
C     -0.035344 0.764803 0.235203     C
C     -0.035344 0.764803 0.764803     C
H     -3.69779e-32   0.8231 0.915088     H
H     -3.69779e-32 0.915088   0.8231     H
H     -2.46519e-32 0.269967 0.638468     H
H     -2.15704e-32 0.638468 0.269967     H
H     -1.84889e-32 0.0849265 0.823099     H
H     -1.38667e-32 0.823099 0.0849265     H
H     -1.2326e-32 0.176909 0.915088     H
H     -1.2326e-32 0.230046  0.86154     H
H     -9.24446e-33  0.86154 0.230046     H
H     -6.16298e-33 0.415088 0.676909     H
H     -4.62223e-33 0.0849264 0.176911     H
H     -4.62223e-33 0.915088 0.176909     H
H     -3.08149e-33 0.176911 0.0849264     H
H     -3.08149e-33 0.676909 0.415088     H
Zr         0.0 -0.0752473      0.0    Zr
Zr         0.0 -0.0752473      1.0    Zr
O          0.0 -0.058967 0.108473     O
O          0.0 -0.058967 0.891533     O
Zr         0.0      0.0 -0.0752473    Zr
Zr         0.0      0.0 0.0752487    Zr
Zr         0.0      0.0 0.9247527    Zr
O          0.0 0.058973 0.108473     O
O          0.0 0.058973 0.891533     O
Zr         0.0 0.0752487      0.0    Zr
Zr         0.0 0.0752487      1.0    Zr
C          0.0 0.095394 0.095394     C
C          0.0 0.095394 0.904614     C
O          0.0 0.108473 -0.058967     O
O          0.0 0.108473 0.058973     O
C          0.0 0.117077 0.168195     C
C          0.0 0.117077 0.831815     C
C          0.0 0.127884 0.127884     C
C          0.0 0.127884 0.872124     C
H          0.0 0.138468 0.230045     H
C          0.0 0.147115 0.197876     C
C          0.0 0.147115 0.802136     C
C          0.0 0.168195 0.117077     C
C          0.0 0.168195 0.882937     C
C          0.0 0.187405 0.187405     C
C          0.0 0.187405 0.812605     C
C          0.0 0.197876 0.147115     C
C          0.0 0.197876 0.852895     C
C          0.0 0.220405 0.220405     C
C          0.0 0.220405 0.779605     C
H          0.0 0.269967 0.361541     H
C          0.0 0.279605 0.279605     C
C          0.0 0.279605 0.720405     C
C          0.0 0.302136 0.352895     C
C          0.0 0.302136 0.647115     C
C          0.0 0.312605 0.312605     C
C          0.0 0.312605 0.687405     C
C          0.0 0.331815 0.382937     C
C          0.0 0.331815 0.617077     C
C          0.0 0.352895 0.302136     C
C          0.0 0.352895 0.697876     C
H          0.0 0.361541 0.269967     H
C          0.0 0.372124 0.372124     C
C          0.0 0.372124 0.627884     C
C          0.0 0.382937 0.331815     C
C          0.0 0.382937 0.668195     C
O          0.0 0.391533 0.441033     O
O          0.0 0.391533 0.558973     O
C          0.0 0.404614 0.404614     C
C          0.0 0.404614 0.595394     C
Zr         0.0 0.4247527      0.5    Zr
O          0.0 0.441033 0.391533     O
O          0.0 0.441033 0.608473     O
Zr         0.0      0.5 0.4247527    Zr
Zr         0.0      0.5 0.5752487    Zr
O          0.0 0.558973 0.391533     O
O          0.0 0.558973 0.608473     O
Zr         0.0 0.5752487      0.5    Zr
C          0.0 0.595394 0.404614     C
C          0.0 0.595394 0.595394     C
O          0.0 0.608473 0.441033     O
O          0.0 0.608473 0.558973     O
C          0.0 0.617077 0.331815     C
C          0.0 0.617077 0.668195     C
C          0.0 0.627884 0.372124     C
C          0.0 0.627884 0.627884     C
C          0.0 0.647115 0.302136     C
C          0.0 0.647115 0.697876     C
C          0.0 0.668195 0.382937     C
C          0.0 0.668195 0.617077     C
C          0.0 0.687405 0.312605     C
C          0.0 0.687405 0.687405     C
C          0.0 0.697876 0.352895     C
C          0.0 0.697876 0.647115     C
C          0.0 0.720405 0.279605     C
C          0.0 0.720405 0.720405     C
C          0.0 0.779605 0.220405     C
C          0.0 0.779605 0.779605     C
C          0.0 0.802136 0.147115     C
C          0.0 0.802136 0.852895     C
C          0.0 0.812605 0.187405     C
C          0.0 0.812605 0.812605     C
C          0.0 0.831815 0.117077     C
C          0.0 0.831815 0.882937     C
C          0.0 0.852895 0.197876     C
C          0.0 0.852895 0.802136     C
C          0.0 0.872124 0.127884     C
C          0.0 0.872124 0.872124     C
C          0.0 0.882937 0.168195     C
C          0.0 0.882937 0.831815     C
O          0.0 0.891533 -0.058967     O
O          0.0 0.891533 0.058973     O
C          0.0 0.904614 0.095394     C
C          0.0 0.904614 0.904614     C
Zr         0.0 0.9247527      0.0    Zr
Zr         0.0 0.9247527      1.0    Zr
Zr         0.0      1.0 -0.0752473    Zr
Zr         0.0      1.0 0.0752487    Zr
Zr         0.0      1.0 0.9247527    Zr
H     1.54074e-33 0.230045 0.138468     H
H     9.24446e-33   0.3231 0.415088     H
H     9.24446e-33 0.415088   0.3231     H
H     1.2326e-32  0.36154 0.730046     H
H     1.2326e-32 0.584926 0.676911     H
H     1.2326e-32 0.676911 0.584926     H
H     1.84889e-32 0.138468 0.769967     H
H     1.84889e-32 0.730046  0.36154     H
H     2.46519e-32 0.638468 0.730045     H
H     2.46519e-32 0.730045 0.638468     H
H     2.46519e-32 0.769967 0.138468     H
H     3.08149e-32 0.769967 0.861541     H
H     3.08149e-32 0.861541 0.769967     H
H     3.69779e-32 0.323099 0.584926     H
H     4.31408e-32 0.584926 0.323099     H
C     0.035356 0.235203 0.235203     C
C     0.035356 0.235203 0.764803     C
C     0.035356 0.264803 0.264803     C
C     0.035356 0.264803 0.735203     C
C     0.035356 0.735203 0.264803     C
C     0.035356 0.735203 0.735203     C
C     0.035356 0.764803 0.235203     C
C     0.035356 0.764803 0.764803     C
O     0.036674 -0.036666 -0.036666     O
O     0.036674 -0.036666 0.036674     O
O     0.036674 0.036674 -0.036666     O
O     0.036674 0.036674 0.036674     O
O     0.036674 0.463334 0.463334     O
O     0.036674 0.463334 0.536674     O
O     0.036674 0.536674 0.463334     O
O     0.036674 0.536674 0.536674     O
O     0.058973      0.0 0.108473     O
O     0.058973      0.0 0.891533     O
O     0.058973 0.108473      0.0     O
O     0.058973 0.391533      0.5     O
O     0.058973      0.5 0.391533     O
O     0.058973      0.5 0.608473     O
O     0.058973 0.608473      0.5     O
O     0.058973 0.891533      0.0     O
H     0.0642946 0.276467 0.723536     H
H     0.0642946 0.723536 0.276467     H
H     0.0642951 0.276468 0.276468     H
H     0.0642951 0.776468 0.776468     H
H     0.0746602 0.193109 0.204665     H
H     0.0746603 0.193109 0.795337     H
H     0.0748036 0.703838 0.693745     H
H     0.0748054 0.806256 0.203834     H
Zr    0.0752487      0.0      0.0    Zr
Zr    0.0752487      0.0      1.0    Zr
Zr    0.0752487      0.5      0.5    Zr
Zr    0.0752487      1.0      0.0    Zr
C     0.0785711 0.2214111 0.221791     C
C     0.0785711 0.2214111 0.778211     C
C     0.0785711 0.7214111 0.721791     C
C     0.0785711 0.778211 0.2214111     C
H     0.0849264      0.0 0.176911     H
H     0.0849264 0.176911      0.0     H
H     0.0849264      0.5 0.676911     H
H     0.0849264 0.676911      0.5     H
H     0.0849265 -1.2326e-32 0.823099     H
H     0.0849265 0.323099      0.5     H
H     0.0849265      0.5 0.323099     H
H     0.0849265 0.823099      0.0     H
H     0.090246 0.754146 0.201557     H
H     0.0902468 0.701554 0.745853     H
H     0.0902873 0.245118 0.201535     H
H     0.0902875 0.245118 0.798468     H
C     0.095394      0.0 0.095394     C
C     0.095394      0.0 0.904614     C
C     0.095394 0.095394      0.0     C
C     0.095394 0.404614      0.5     C
C     0.095394      0.5 0.404614     C
C     0.095394      0.5 0.595394     C
C     0.095394 0.595394      0.5     C
C     0.095394 0.904614      0.0     C
N     0.1072615 0.152883 0.299864     N
N     0.1072615 0.152883 0.700144     N
N     0.1072615 0.799864 0.652883     N
N     0.1072615 0.847123 0.299864     N
O     0.108473 -0.058967      0.0     O
O     0.108473      0.0 -0.058967     O
O     0.108473      0.0 0.058973     O
O     0.108473 0.058973      0.0     O
O     0.108473 0.441033      0.5     O
O     0.108473      0.5 0.441033     O
O     0.108473      0.5 0.558973     O
O     0.108473 0.558973      0.5     O
H     0.109421  0.83066 0.656178     H
N     0.110378 0.183032 0.277403     N
N     0.110378 0.183032 0.722603     N
N     0.110378 0.777403 0.683032     N
N     0.110378 0.816972 0.277403     N
H     0.110757 0.124353 0.711882     H
H     0.112972 0.155519 0.330268     H
N     0.1130111 0.213042 0.254673     N
N     0.1130111 0.213042 0.745333     N
N     0.1130111 0.754673 0.713042     N
N     0.1130111 0.786962 0.254673     N
C     0.117077      0.0 0.168195     C
C     0.117077      0.0 0.831815     C
C     0.117077 0.168195      0.0     C
C     0.117077 0.331815      0.5     C
C     0.117077      0.5 0.331815     C
C     0.117077      0.5 0.668195     C
C     0.117077 0.668195      0.5     C
C     0.117077 0.831815      0.0     C
H     0.119409 0.874322 0.291112     H
C     0.127884      0.0 0.127884     C
C     0.127884      0.0 0.872124     C
C     0.127884 0.127884      0.0     C
C     0.127884 0.372124      0.5     C
C     0.127884      0.5 0.372124     C
C     0.127884      0.5 0.627884     C
C     0.127884 0.627884      0.5     C
C     0.127884 0.872124      0.0     C
H     0.137832 0.632736 0.190739     H
H     0.138468      0.0 0.230045     H
H     0.138468 1.84889e-32 0.769967     H
H     0.138468 0.230045      0.0     H
H     0.138468 0.269967      0.5     H
H     0.138468      0.5 0.269967     H
H     0.138468      0.5 0.730045     H
H     0.138468 0.730045      0.5     H
H     0.138468 0.769967      0.0     H
C     0.147115      0.0 0.197876     C
C     0.147115      0.0 0.802136     C
C     0.147115 0.197876      0.0     C
C     0.147115 0.302136      0.5     C
C     0.147115      0.5 0.302136     C
C     0.147115      0.5 0.697876     C
C     0.147115 0.697876      0.5     C
C     0.147115 0.802136      0.0     C
H     0.147916 0.315638 0.919018     H
H     0.151751 0.826602 0.623002     H
N     0.152883 0.299864 0.8927415     N
N     0.152883 0.6072615 0.200144     N
N     0.152883 0.799864 0.6072615     N
C     0.168195      0.0 0.117077     C
C     0.168195      0.0 0.882937     C
C     0.168195 0.117077      0.0     C
C     0.168195 0.382937      0.5     C
C     0.168195      0.5 0.382937     C
C     0.168195      0.5 0.617077     C
C     0.168195 0.617077      0.5     C
C     0.168195 0.882937      0.0     C
H      0.16936 0.656147  0.10963     H
H     0.176909      0.0 0.915088     H
H     0.176909 0.415088      0.5     H
H     0.176909      0.5 0.415088     H
H     0.176909 0.915088      0.0     H
H     0.176911 3.08149e-33 0.0849264     H
H     0.176911 0.0849264      0.0     H
H     0.176911      0.5 0.584926     H
H     0.176911 0.584926      0.5     H
N     0.183032 0.277403 0.889638     N
N     0.183032 0.610378 0.222603     N
N     0.183032 0.777403 0.610378     N
C     0.187405      0.0 0.187405     C
C     0.187405      0.0 0.812605     C
C     0.187405 0.187405      0.0     C
C     0.187405 0.312605      0.5     C
C     0.187405      0.5 0.312605     C
C     0.187405      0.5 0.687405     C
C     0.187405 0.687405      0.5     C
C     0.187405 0.812605      0.0     C
H     0.187894 0.920277 0.645419     H
H     0.193109 0.204663  0.92534     H
H     0.193109  0.57466 0.295337     H
H     0.193109 0.704665  0.57466     H
H     0.195849 0.139509  0.42043     H
C     0.197876      0.0 0.147115     C
C     0.197876      0.0 0.852895     C
C     0.197876 0.147115      0.0     C
C     0.197876 0.352895      0.5     C
C     0.197876      0.5 0.352895     C
C     0.197876      0.5 0.647115     C
C     0.197876 0.647115      0.5     C
C     0.197876 0.852895      0.0     C
H     0.199741 0.919095 0.363533     H
N     0.200144 0.152883 0.3927415     N
N     0.200144 0.3927415 0.847123     N
N     0.200144 0.652883 0.1072615     N
N     0.200144 0.8927415 0.347123     N
N     0.200144 0.8927415 0.652883     N
H     0.201554 0.0902468 0.245853     H
H     0.201554 0.590247 0.745853     H
H     0.201557 0.090246 0.754146     H
H     0.201557 0.254146 0.590246     H
H     0.201558 0.754145 0.909756     H
H     0.203833 0.806255 0.925195     H
H     0.203834 0.0748054 0.806256     H
H     0.203834 0.306256 0.574805     H
H     0.203838 0.0748036 0.193745     H
H     0.203838 0.574804 0.693745     H
H     0.210439 0.406916 0.872756     H
N     0.213042 0.254673 0.8869911     N
N     0.213042 0.6130111 0.245333     N
N     0.213042 0.754673 0.6130111     N
C     0.220405      0.0 0.220405     C
C     0.220405      0.0 0.779605     C
C     0.220405 0.220405      0.0     C
C     0.220405 0.279605      0.5     C
C     0.220405      0.5 0.279605     C
C     0.220405      0.5 0.720405     C
C     0.220405 0.720405      0.5     C
C     0.220405 0.779605      0.0     C
C     0.2214111 0.0785711 0.221791     C
C     0.2214111 0.0785711 0.778211     C
C     0.2214111 0.221791 0.9214311     C
C     0.2214111 0.278211 0.5785711     C
C     0.2214111 0.5785711 0.278211     C
C     0.2214111 0.5785711 0.721791     C
C     0.2214111 0.721791 0.5785711     C
C     0.2214111 0.778211 0.9214311     C
N     0.222603 0.183032 0.389638     N
N     0.222603 0.389638 0.816972     N
N     0.222603 0.683032 0.110378     N
N     0.222603 0.889638 0.316972     N
N     0.222603 0.889638 0.683032     N
H     0.223536 0.776467 0.0642946     H
H     0.223537 -0.0642838 0.776466     H
H     0.223537 0.223537 0.0642941     H
H     0.223537 0.276466 0.435716     H
H     0.223537 0.435716 0.276466     H
H     0.223538 -0.0642833 0.223538     H
H     0.223538 0.435717 0.723538     H
H     0.223538 0.723538 0.435717     H
H     0.230045      0.0 0.138468     H
H     0.230045 0.138468      0.0     H
H     0.230045      0.5 0.638468     H
H     0.230045 0.638468      0.5     H
H     0.230046 -6.16298e-33  0.86154     H
H     0.230046  0.36154      0.5     H
H     0.230046      0.5  0.36154     H
H     0.230046  0.86154      0.0     H
C     0.235203 -0.035344 0.235203     C
C     0.235203 -0.035344 0.764803     C
C     0.235203 0.035356 0.235203     C
C     0.235203 0.035356 0.764803     C
C     0.235203 0.235203 -0.035344     C
C     0.235203 0.235203 0.035356     C
C     0.235203 0.264803 0.464656     C
C     0.235203 0.264803 0.535356     C
C     0.235203 0.464656 0.264803     C
C     0.235203 0.464656 0.735203     C
C     0.235203 0.535356 0.264803     C
C     0.235203 0.535356 0.735203     C
C     0.235203 0.735203 0.464656     C
C     0.235203 0.735203 0.535356     C
C     0.235203 0.764803 -0.035344     C
C     0.235203 0.764803 0.035356     C
H     0.245118 0.590288 0.298468     H
H     0.245118 0.701535 0.590287     H
H      0.24512 0.201536 0.909715     H
N     0.245333 0.213042 0.3869911     N
N     0.245333 0.3869911 0.786962     N
N     0.245333 0.713042 0.1130111     N
N     0.245333 0.8869911 0.286962     N
N     0.245333 0.8869911 0.713042     N
H     0.254145 0.409756 0.201558     H
H     0.254145 0.798444 0.409756     H
H     0.254146 0.298446 0.0902462     H
N     0.254673 0.1130111 0.213042     N
N     0.254673 0.1130111 0.786962     N
N     0.254673 0.286962 0.6130111     N
N     0.254673 0.6130111 0.713042     N
N     0.254673 0.786962 0.8869911     N
C     0.264803 -0.035344 0.264803     C
C     0.264803 -0.035344 0.735203     C
C     0.264803 0.035356 0.264803     C
C     0.264803 0.035356 0.735203     C
C     0.264803 0.235203 0.464656     C
C     0.264803 0.235203 0.535356     C
C     0.264803 0.264803 -0.035344     C
C     0.264803 0.264803 0.035356     C
C     0.264803 0.464656 0.235203     C
C     0.264803 0.464656 0.764803     C
C     0.264803 0.535356 0.235203     C
C     0.264803 0.535356 0.764803     C
C     0.264803 0.735203 -0.035344     C
C     0.264803 0.735203 0.035356     C
C     0.264803 0.764803 0.464656     C
C     0.264803 0.764803 0.535356     C
H     0.269967 -1.2326e-32 0.638468     H
H     0.269967      0.0 0.361541     H
H     0.269967 0.138468      0.5     H
H     0.269967 0.361541      0.0     H
H     0.269967      0.5 0.138468     H
H     0.269967      0.5 0.861541     H
H     0.269967 0.638468      0.0     H
H     0.269967 0.861541      0.5     H
H     0.276466 0.723537 -0.0642838     H
H     0.276467 0.0642946 0.723536     H
H     0.276467 0.223536 0.564295     H
H     0.276467 0.276467 -0.0642843     H
H     0.276467 0.564295 0.223536     H
H     0.276468 0.0642951 0.276468     H
H     0.276468 0.564295 0.776468     H
H     0.276468 0.776468 0.564295     H
N     0.277403 0.110378 0.183032     N
N     0.277403 0.110378 0.816972     N
N     0.277403 0.316972 0.610378     N
N     0.277403 0.610378 0.683032     N
N     0.277403 0.816972 0.889638     N
C     0.278211 0.2214111 0.4214311     C
C     0.278211 0.2785911 0.0785711     C
C     0.278211 0.4214311 0.2214111     C
C     0.278211 0.4214311 0.7785911     C
C     0.278211 0.7214111 0.0785711     C
C     0.278211 0.7785911 0.4214311     C
C     0.278211 0.9214311 0.2785911     C
C     0.278211 0.9214311 0.7214111     C
C     0.279605      0.0 0.279605     C
C     0.279605      0.0 0.720405     C
C     0.279605 0.220405      0.5     C
C     0.279605 0.279605      0.0     C
C     0.279605      0.5 0.220405     C
C     0.279605      0.5 0.779605     C
C     0.279605 0.720405      0.0     C
C     0.279605 0.779605      0.5     C
N     0.286962 0.245333 0.1130111     N
N     0.286962 0.3869911 0.254673     N
N     0.286962 0.745333 0.3869911     N
H     0.291178 0.119535 0.874287     H
H     0.295337 0.693109 0.0746603     H
H     0.295338 0.193109  0.42534     H
H     0.295338  0.92534 0.693109     H
H     0.295341 0.425338 0.806892     H
H     0.295341 0.925338 0.306892     H
H     0.298463 0.409716  0.75488     H
H     0.298463 0.909716  0.25488     H
H     0.298466 0.245119 0.409715     H
H     0.298466 0.909715 0.745119     H
H     0.298468 0.745118 0.0902875     H
N     0.299864 0.1072615 0.152883     N
N     0.299864 0.1072615 0.847123     N
N     0.299864 0.347123 0.6072615     N
N     0.299864 0.6072615 0.652883     N
N     0.299864 0.847123 0.8927415     N
H     0.301303 0.862715 0.919551     H
C     0.302136      0.0 0.352895     C
C     0.302136      0.0 0.647115     C
C     0.302136 0.147115      0.5     C
C     0.302136 0.352895      0.0     C
C     0.302136      0.5 0.147115     C
C     0.302136      0.5 0.852895     C
C     0.302136 0.647115      0.0     C
C     0.302136 0.852895      0.5     C
H     0.306255 0.425195 0.203833     H
H     0.306255 0.796169 0.425195     H
H     0.306256 0.296168 0.0748055     H
H     0.311583  0.36045 0.632737     H
C     0.312605      0.0 0.312605     C
C     0.312605      0.0 0.687405     C
C     0.312605 0.187405      0.5     C
C     0.312605 0.312605      0.0     C
C     0.312605      0.5 0.187405     C
C     0.312605      0.5 0.812605     C
C     0.312605 0.687405      0.0     C
C     0.312605 0.812605      0.5     C
N     0.316972 0.222603 0.110378     N
N     0.316972 0.389638 0.277403     N
N     0.316972 0.722603 0.389638     N
H     0.323099 1.84889e-32 0.584926     H
H     0.323099 0.0849265      0.5     H
H     0.323099      0.5 0.0849265     H
H     0.323099 0.584926      0.0     H
H       0.3231 3.08149e-33 0.415088     H
H       0.3231 0.415088      0.0     H
H       0.3231      0.5 0.915088     H
H       0.3231 0.915088      0.5     H
H     0.326296 0.623489 0.651473     H
H     0.330131 0.113726 0.155339     H
C     0.331815      0.0 0.382937     C
C     0.331815      0.0 0.617077     C
C     0.331815 0.117077      0.5     C
C     0.331815 0.382937      0.0     C
C     0.331815      0.5 0.117077     C
C     0.331815      0.5 0.882937     C
C     0.331815 0.617077      0.0     C
C     0.331815 0.882937      0.5     C
N     0.347123 0.200144 0.1072615     N
N     0.347123 0.3927415 0.299864     N
N     0.347123 0.700144 0.3927415     N
C     0.352895      0.0 0.302136     C
C     0.352895      0.0 0.697876     C
C     0.352895 0.197876      0.5     C
C     0.352895 0.302136      0.0     C
C     0.352895      0.5 0.197876     C
C     0.352895      0.5 0.802136     C
C     0.352895 0.697876      0.0     C
C     0.352895 0.802136      0.5     C
H     0.354643 0.420296 0.312036     H
H      0.36154 2.46519e-32 0.730046     H
H      0.36154 0.230046      0.5     H
H      0.36154      0.5 0.230046     H
H      0.36154 0.730046      0.0     H
H     0.361541 6.16298e-33 0.269967     H
H     0.361541 0.269967      0.0     H
H     0.361541      0.5 0.769967     H
H     0.361541 0.769967      0.5     H
C     0.372124      0.0 0.372124     C
C     0.372124      0.0 0.627884     C
C     0.372124 0.127884      0.5     C
C     0.372124 0.372124      0.0     C
C     0.372124      0.5 0.127884     C
C     0.372124      0.5 0.872124     C
C     0.372124 0.627884      0.0     C
C     0.372124 0.872124      0.5     C
H     0.372644 0.710328 0.407196     H
H     0.375081 0.210379 0.116068     H
C     0.382937      0.0 0.331815     C
C     0.382937      0.0 0.668195     C
C     0.382937 0.168195      0.5     C
C     0.382937 0.331815      0.0     C
C     0.382937      0.5 0.168195     C
C     0.382937      0.5 0.831815     C
C     0.382937 0.668195      0.0     C
C     0.382937 0.831815      0.5     C
N     0.3869911 0.245333 0.786962     N
N     0.3869911 0.286962 0.254673     N
N     0.3869911 0.745333 0.713042     N
N     0.3869911 0.786962 0.245333     N
N     0.389638 0.222603 0.816972     N
N     0.389638 0.316972 0.277403     N
N     0.389638 0.722603 0.683032     N
N     0.389638 0.816972 0.222603     N
O     0.391533 -0.058967      0.5     O
O     0.391533      0.0 0.441033     O
O     0.391533      0.0 0.558973     O
O     0.391533 0.058973      0.5     O
O     0.391533 0.441033      0.0     O
O     0.391533      0.5 -0.058967     O
O     0.391533      0.5 0.058973     O
O     0.391533 0.558973      0.0     O
N     0.3927415 0.200144 0.847123     N
N     0.3927415 0.347123 0.299864     N
N     0.3927415 0.700144 0.652883     N
N     0.3927415 0.847123 0.200144     N
C     0.404614      0.0 0.404614     C
C     0.404614      0.0 0.595394     C
C     0.404614 0.095394      0.5     C
C     0.404614 0.404614      0.0     C
C     0.404614      0.5 0.095394     C
C     0.404614      0.5 0.904614     C
C     0.404614 0.595394      0.0     C
C     0.404614 0.904614      0.5     C
H     0.405445  0.21097 0.873302     H
H      0.40693  0.87275 0.210434     H
H     0.409715 0.798466 0.745119     H
H     0.409716 0.298463  0.75488     H
H     0.409756 0.254145 0.201558     H
H     0.409756 0.754145 0.298444     H
H     0.415088      0.0 0.676909     H
H     0.415088 3.08149e-33   0.3231     H
H     0.415088 0.176909      0.5     H
H     0.415088   0.3231      0.0     H
H     0.415088      0.5 0.176909     H
H     0.415088      0.5   0.8231     H
H     0.415088 0.676909      0.0     H
H     0.415088   0.8231      0.5     H
H     0.419391  0.69909 0.636988     H
H     0.420662  0.35605 0.310096     H
C     0.4214311 0.278211 0.2214111     C
C     0.4214311 0.278211 0.7785911     C
C     0.4214311 0.778211 0.2785911     C
C     0.4214311 0.778211 0.7214111     C
Zr    0.4247527      0.0      0.5    Zr
Zr    0.4247527      0.5      0.0    Zr
Zr    0.4247527      0.5      1.0    Zr
Zr    0.4247527      1.0      0.5    Zr
H     0.425195 0.306255 0.203833     H
H     0.425195 0.806255 0.296169     H
H     0.425338 0.295341 0.806892     H
H      0.42534 0.795338 0.693109     H
H     0.435716 0.223537 0.276466     H
H     0.435716 0.723537 0.776466     H
H     0.435717 0.223538 0.723538     H
H     0.435717 0.723538 0.223538     H
O     0.441033      0.0 0.391533     O
O     0.441033      0.0 0.608473     O
O     0.441033 0.108473      0.5     O
O     0.441033 0.391533      0.0     O
O     0.441033      0.5 0.108473     O
O     0.441033      0.5 0.891533     O
O     0.441033 0.608473      0.0     O
O     0.441033 0.891533      0.5     O
O     0.463334 -0.036666 0.463334     O
O     0.463334 -0.036666 0.536674     O
O     0.463334 0.036674 0.463334     O
O     0.463334 0.036674 0.536674     O
O     0.463334 0.463334 -0.036666     O
O     0.463334 0.463334 0.036674     O
O     0.463334 0.536674 -0.036666     O
O     0.463334 0.536674 0.036674     O
C     0.464656 0.235203 0.264803     C
C     0.464656 0.235203 0.735203     C
C     0.464656 0.264803 0.235203     C
C     0.464656 0.264803 0.764803     C
C     0.464656 0.735203 0.235203     C
C     0.464656 0.735203 0.764803     C
C     0.464656 0.764803 0.264803     C
C     0.464656 0.764803 0.735203     C
Zr         0.5 -0.0752473      0.5    Zr
O          0.5 -0.058967 0.391533     O
O          0.5 -0.058967 0.608473     O
Zr         0.5      0.0 0.4247527    Zr
Zr         0.5      0.0 0.5752487    Zr
O          0.5 0.058973 0.391533     O
O          0.5 0.058973 0.608473     O
Zr         0.5 0.0752487      0.5    Zr
H          0.5 0.0849264 0.676911     H
H          0.5 0.0849265 0.323099     H
C          0.5 0.095394 0.404614     C
C          0.5 0.095394 0.595394     C
O          0.5 0.108473 0.441033     O
O          0.5 0.108473 0.558973     O
C          0.5 0.117077 0.331815     C
C          0.5 0.117077 0.668195     C
C          0.5 0.127884 0.372124     C
C          0.5 0.127884 0.627884     C
H          0.5 0.138468 0.269967     H
H          0.5 0.138468 0.730045     H
C          0.5 0.147115 0.302136     C
C          0.5 0.147115 0.697876     C
C          0.5 0.168195 0.382937     C
C          0.5 0.168195 0.617077     C
H          0.5 0.176909 0.415088     H
H          0.5 0.176911 0.584926     H
C          0.5 0.187405 0.312605     C
C          0.5 0.187405 0.687405     C
C          0.5 0.197876 0.352895     C
C          0.5 0.197876 0.647115     C
C          0.5 0.220405 0.279605     C
C          0.5 0.220405 0.720405     C
H          0.5 0.230045 0.638468     H
H          0.5 0.230046  0.36154     H
H          0.5 0.269967 0.138468     H
H          0.5 0.269967 0.861541     H
C          0.5 0.279605 0.220405     C
C          0.5 0.279605 0.779605     C
C          0.5 0.302136 0.147115     C
C          0.5 0.302136 0.852895     C
C          0.5 0.312605 0.187405     C
C          0.5 0.312605 0.812605     C
H          0.5 0.323099 0.0849265     H
H          0.5   0.3231 0.915088     H
C          0.5 0.331815 0.117077     C
C          0.5 0.331815 0.882937     C
C          0.5 0.352895 0.197876     C
C          0.5 0.352895 0.802136     C
H          0.5  0.36154 0.230046     H
H          0.5 0.361541 0.769967     H
C          0.5 0.372124 0.127884     C
C          0.5 0.372124 0.872124     C
C          0.5 0.382937 0.168195     C
C          0.5 0.382937 0.831815     C
O          0.5 0.391533 -0.058967     O
O          0.5 0.391533 0.058973     O
C          0.5 0.404614 0.095394     C
C          0.5 0.404614 0.904614     C
H          0.5 0.415088 0.176909     H
H          0.5 0.415088   0.8231     H
Zr         0.5 0.4247527      0.0    Zr
Zr         0.5 0.4247527      1.0    Zr
O          0.5 0.441033 0.108473     O
O          0.5 0.441033 0.891533     O
Zr         0.5      0.5 -0.0752473    Zr
Zr         0.5      0.5 0.0752487    Zr
Zr         0.5      0.5 0.9247527    Zr
O          0.5 0.558973 0.108473     O
O          0.5 0.558973 0.891533     O
Zr         0.5 0.5752487      0.0    Zr
Zr         0.5 0.5752487      1.0    Zr
H          0.5 0.584926 0.176911     H
H          0.5 0.584926 0.823099     H
C          0.5 0.595394 0.095394     C
C          0.5 0.595394 0.904614     C
O          0.5 0.608473 -0.058967     O
O          0.5 0.608473 0.058973     O
C          0.5 0.617077 0.168195     C
C          0.5 0.617077 0.831815     C
C          0.5 0.627884 0.127884     C
C          0.5 0.627884 0.872124     C
H          0.5 0.638468 0.230045     H
H          0.5 0.638468 0.769967     H
C          0.5 0.647115 0.197876     C
C          0.5 0.647115 0.802136     C
C          0.5 0.668195 0.117077     C
C          0.5 0.668195 0.882937     C
H          0.5 0.676909 0.915088     H
H          0.5 0.676911 0.0849264     H
C          0.5 0.687405 0.187405     C
C          0.5 0.687405 0.812605     C
C          0.5 0.697876 0.147115     C
C          0.5 0.697876 0.852895     C
C          0.5 0.720405 0.220405     C
C          0.5 0.720405 0.779605     C
H          0.5 0.730045 0.138468     H
H          0.5 0.730046  0.86154     H
H          0.5 0.769967 0.361541     H
H          0.5 0.769967 0.638468     H
C          0.5 0.779605 0.279605     C
C          0.5 0.779605 0.720405     C
C          0.5 0.802136 0.352895     C
C          0.5 0.802136 0.647115     C
C          0.5 0.812605 0.312605     C
C          0.5 0.812605 0.687405     C
H          0.5 0.823099 0.584926     H
H          0.5   0.8231 0.415088     H
C          0.5 0.831815 0.382937     C
C          0.5 0.831815 0.617077     C
C          0.5 0.852895 0.302136     C
C          0.5 0.852895 0.697876     C
H          0.5  0.86154 0.730046     H
H          0.5 0.861541 0.269967     H
C          0.5 0.872124 0.372124     C
C          0.5 0.872124 0.627884     C
C          0.5 0.882937 0.331815     C
C          0.5 0.882937 0.668195     C
O          0.5 0.891533 0.441033     O
O          0.5 0.891533 0.558973     O
C          0.5 0.904614 0.404614     C
C          0.5 0.904614 0.595394     C
H          0.5 0.915088   0.3231     H
H          0.5 0.915088 0.676909     H
Zr         0.5 0.9247527      0.5    Zr
Zr         0.5      1.0 0.4247527    Zr
Zr         0.5      1.0 0.5752487    Zr
C     0.535356 0.235203 0.264803     C
C     0.535356 0.235203 0.735203     C
C     0.535356 0.264803 0.235203     C
C     0.535356 0.264803 0.764803     C
C     0.535356 0.735203 0.235203     C
C     0.535356 0.735203 0.764803     C
C     0.535356 0.764803 0.264803     C
C     0.535356 0.764803 0.735203     C
O     0.536674 -0.036666 0.463334     O
O     0.536674 -0.036666 0.536674     O
O     0.536674 0.036674 0.463334     O
O     0.536674 0.036674 0.536674     O
O     0.536674 0.463334 -0.036666     O
O     0.536674 0.463334 0.036674     O
O     0.536674 0.536674 -0.036666     O
O     0.536674 0.536674 0.036674     O
O     0.558973      0.0 0.391533     O
O     0.558973      0.0 0.608473     O
O     0.558973 0.108473      0.5     O
O     0.558973 0.391533      0.0     O
O     0.558973      0.5 0.108473     O
O     0.558973      0.5 0.891533     O
O     0.558973 0.608473      0.0     O
O     0.558973 0.891533      0.5     O
H     0.564295 0.276467 0.223536     H
H     0.564295 0.276468 0.776468     H
H     0.564295 0.776467 0.723536     H
H     0.564295 0.776468 0.276468     H
H      0.57466 0.193109 0.295337     H
H      0.57466 0.693109 0.204665     H
H     0.574804 0.203838 0.693745     H
H     0.574805 0.703834 0.806256     H
Zr    0.5752487      0.0      0.5    Zr
Zr    0.5752487      0.5      0.0    Zr
Zr    0.5752487      0.5      1.0    Zr
Zr    0.5752487      1.0      0.5    Zr
C     0.5785711 0.2214111 0.278211     C
C     0.5785711 0.2214111 0.721791     C
C     0.5785711 0.7214111 0.221791     C
C     0.5785711 0.7214111 0.778211     C
H     0.584926 -6.16298e-33 0.676911     H
H     0.584926 3.08149e-33 0.323099     H
H     0.584926 0.176911      0.5     H
H     0.584926 0.323099      0.0     H
H     0.584926      0.5 0.176911     H
H     0.584926      0.5 0.823099     H
H     0.584926 0.676911      0.0     H
H     0.584926 0.823099      0.5     H
H     0.590246 0.701557 0.754146     H
H     0.590247 0.201554 0.745853     H
H     0.590287 0.745118 0.201535     H
H     0.590288 0.245118 0.298468     H
C     0.595394      0.0 0.404614     C
C     0.595394      0.0 0.595394     C
C     0.595394 0.095394      0.5     C
C     0.595394 0.404614      0.0     C
C     0.595394      0.5 0.095394     C
C     0.595394      0.5 0.904614     C
C     0.595394 0.595394      0.0     C
C     0.595394 0.904614      0.5     C
N     0.6072615 0.152883 0.200144     N
N     0.6072615 0.299864 0.652883     N
N     0.6072615 0.652883 0.299864     N
N     0.6072615 0.799864 0.847123     N
O     0.608473 -0.058967      0.5     O
O     0.608473      0.0 0.441033     O
O     0.608473      0.0 0.558973     O
O     0.608473 0.058973      0.5     O
O     0.608473 0.441033      0.0     O
O     0.608473      0.5 -0.058967     O
O     0.608473      0.5 0.058973     O
O     0.608473 0.558973      0.0     O
N     0.610378 0.183032 0.222603     N
N     0.610378 0.277403 0.683032     N
N     0.610378 0.683032 0.277403     N
N     0.610378 0.777403 0.816972     N
N     0.6130111 0.213042 0.245333     N
N     0.6130111 0.254673 0.713042     N
N     0.6130111 0.713042 0.254673     N
N     0.6130111 0.754673 0.786962     N
C     0.617077      0.0 0.331815     C
C     0.617077      0.0 0.668195     C
C     0.617077 0.168195      0.5     C
C     0.617077 0.331815      0.0     C
C     0.617077      0.5 0.168195     C
C     0.617077      0.5 0.831815     C
C     0.617077 0.668195      0.0     C
C     0.617077 0.831815      0.5     C
H     0.623709 0.651343 0.326152     H
H     0.624591  0.32554 0.650796     H
C     0.627884      0.0 0.372124     C
C     0.627884      0.0 0.627884     C
C     0.627884 0.127884      0.5     C
C     0.627884 0.372124      0.0     C
C     0.627884      0.5 0.127884     C
C     0.627884      0.5 0.872124     C
C     0.627884 0.627884      0.0     C
C     0.627884 0.872124      0.5     C
H     0.632231  0.81473 0.858054     H
H     0.632615 0.136954 0.191934     H
H     0.634798 0.631951  0.69492     H
H     0.638468 6.16298e-33 0.269967     H
H     0.638468 2.46519e-32 0.730045     H
H     0.638468 0.230045      0.5     H
H     0.638468 0.269967      0.0     H
H     0.638468      0.5 0.230045     H
H     0.638468      0.5 0.769967     H
H     0.638468 0.730045      0.0     H
H     0.638468 0.769967      0.5     H
C     0.647115      0.0 0.302136     C
C     0.647115      0.0 0.697876     C
C     0.647115 0.197876      0.5     C
C     0.647115 0.302136      0.0     C
C     0.647115      0.5 0.197876     C
C     0.647115      0.5 0.802136     C
C     0.647115 0.697876      0.0     C
C     0.647115 0.802136      0.5     C
H     0.651466 0.326289   0.6235     H
N     0.652883 0.200144 0.1072615     N
N     0.652883 0.299864 0.6072615     N
N     0.652883 0.6072615 0.700144     N
H     0.656277 0.169316 0.108688     H
C     0.668195      0.0 0.382937     C
C     0.668195      0.0 0.617077     C
C     0.668195 0.117077      0.5     C
C     0.668195 0.382937      0.0     C
C     0.668195      0.5 0.117077     C
C     0.668195      0.5 0.882937     C
C     0.668195 0.617077      0.0     C
C     0.668195 0.882937      0.5     C
H     0.676909 3.08149e-33 0.415088     H
H     0.676909 0.415088      0.0     H
H     0.676909      0.5 0.915088     H
H     0.676909 0.915088      0.5     H
H     0.676911 2.46519e-32 0.584926     H
H     0.676911 0.0849264      0.5     H
H     0.676911      0.5 0.0849264     H
H     0.676911 0.584926      0.0     H
N     0.683032 0.222603 0.110378     N
N     0.683032 0.277403 0.610378     N
N     0.683032 0.610378 0.722603     N
C     0.687405      0.0 0.312605     C
C     0.687405      0.0 0.687405     C
C     0.687405 0.187405      0.5     C
C     0.687405 0.312605      0.0     C
C     0.687405      0.5 0.187405     C
C     0.687405      0.5 0.812605     C
C     0.687405 0.687405      0.0     C
C     0.687405 0.812605      0.5     C
H     0.693109 0.204665  0.57466     H
H     0.693109 0.295337 0.0746603     H
H     0.693109  0.57466 0.795337     H
C     0.697876      0.0 0.352895     C
C     0.697876      0.0 0.647115     C
C     0.697876 0.147115      0.5     C
C     0.697876 0.352895      0.0     C
C     0.697876      0.5 0.147115     C
C     0.697876      0.5 0.852895     C
C     0.697876 0.647115      0.0     C
C     0.697876 0.852895      0.5     C
H     0.699771 0.636449  0.41908     H
N     0.700144 0.1072615 0.152883     N
N     0.700144 0.3927415 0.347123     N
N     0.700144 0.652883 0.3927415     N
N     0.700144 0.847123 0.8927415     N
N     0.700144 0.8927415 0.847123     N
H     0.701554 0.0902468 0.745853     H
H     0.701554 0.590247 0.245853     H
H     0.701554 0.745853 0.0902468     H
H     0.701557 0.754146 0.590246     H
H     0.701558 0.909756 0.254145     H
H     0.703833 0.925195 0.306255     H
H     0.703834 0.806256 0.574805     H
H     0.703838 0.0748036 0.693745     H
H     0.703838 0.574804 0.193745     H
H     0.703838 0.693745 0.0748036     H
H      0.70824  0.91129 0.870668     H
H     0.708611 0.871006 0.910682     H
H     0.710426  0.40695 0.372742     H
H     0.712143 0.109238 0.124316     H
N     0.713042 0.245333 0.1130111     N
N     0.713042 0.254673 0.6130111     N
N     0.713042 0.6130111 0.745333     N
C     0.720405      0.0 0.279605     C
C     0.720405      0.0 0.720405     C
C     0.720405 0.220405      0.5     C
C     0.720405 0.279605      0.0     C
C     0.720405      0.5 0.220405     C
C     0.720405      0.5 0.779605     C
C     0.720405 0.720405      0.0     C
C     0.720405 0.779605      0.5     C
C     0.7214111 0.0785711 0.721791     C
C     0.7214111 0.221791 0.5785711     C
C     0.7214111 0.278211 0.0785711     C
C     0.7214111 0.5785711 0.221791     C
C     0.7214111 0.5785711 0.778211     C
C     0.7214111 0.721791 0.0785711     C
C     0.7214111 0.778211 0.5785711     C
C     0.7214111 0.9214311 0.278211     C
N     0.722603 0.110378 0.183032     N
N     0.722603 0.389638 0.316972     N
N     0.722603 0.683032 0.389638     N
N     0.722603 0.816972 0.889638     N
N     0.722603 0.889638 0.816972     N
H     0.723536 0.0642946 0.276467     H
H     0.723537 0.276466 -0.0642838     H
H     0.723537 0.435716 0.776466     H
H     0.723537 0.776466 0.435716     H
H     0.723538 -0.0642833 0.723538     H
H     0.723538 0.223538 0.435717     H
H     0.723538 0.435717 0.223538     H
H     0.723538 0.723538 -0.0642833     H
H     0.730045 -6.16298e-33 0.638468     H
H     0.730045 0.138468      0.5     H
H     0.730045      0.5 0.138468     H
H     0.730045 0.638468      0.0     H
H     0.730046      0.0  0.36154     H
H     0.730046  0.36154      0.0     H
H     0.730046      0.5  0.86154     H
H     0.730046  0.86154      0.5     H
C     0.735203 -0.035344 0.264803     C
C     0.735203 -0.035344 0.735203     C
C     0.735203 0.035356 0.264803     C
C     0.735203 0.035356 0.735203     C
C     0.735203 0.235203 0.464656     C
C     0.735203 0.235203 0.535356     C
C     0.735203 0.264803 -0.035344     C
C     0.735203 0.264803 0.035356     C
C     0.735203 0.464656 0.235203     C
C     0.735203 0.464656 0.764803     C
C     0.735203 0.535356 0.235203     C
C     0.735203 0.535356 0.764803     C
C     0.735203 0.735203 -0.035344     C
C     0.735203 0.735203 0.035356     C
C     0.735203 0.764803 0.464656     C
C     0.735203 0.764803 0.535356     C
H     0.745118 0.201535 0.590287     H
H     0.745118 0.298468 0.0902875     H
H     0.745118 0.590288 0.798468     H
N     0.745333 0.1130111 0.213042     N
N     0.745333 0.3869911 0.286962     N
N     0.745333 0.713042 0.3869911     N
N     0.745333 0.786962 0.8869911     N
N     0.745333 0.8869911 0.786962     N
H     0.754145 0.201558 0.909756     H
H     0.754145 0.298444 0.409756     H
H     0.754145 0.409756 0.701558     H
N     0.754673 0.1130111 0.713042     N
N     0.754673 0.6130111 0.213042     N
N     0.754673 0.713042 0.1130111     N
N     0.754673 0.786962 0.6130111     N
N     0.754673 0.8869911 0.286962     N
C     0.764803 -0.035344 0.235203     C
C     0.764803 -0.035344 0.764803     C
C     0.764803 0.035356 0.235203     C
C     0.764803 0.035356 0.764803     C
C     0.764803 0.235203 -0.035344     C
C     0.764803 0.235203 0.035356     C
C     0.764803 0.264803 0.464656     C
C     0.764803 0.264803 0.535356     C
C     0.764803 0.464656 0.264803     C
C     0.764803 0.464656 0.735203     C
C     0.764803 0.535356 0.264803     C
C     0.764803 0.535356 0.735203     C
C     0.764803 0.735203 0.464656     C
C     0.764803 0.735203 0.535356     C
C     0.764803 0.764803 -0.035344     C
C     0.764803 0.764803 0.035356     C
H     0.769967      0.0 0.138468     H
H     0.769967      0.0 0.861541     H
H     0.769967 0.138468      0.0     H
H     0.769967 0.361541      0.5     H
H     0.769967      0.5 0.361541     H
H     0.769967      0.5 0.638468     H
H     0.769967 0.638468      0.5     H
H     0.769967 0.861541      0.0     H
H     0.776466 -0.0642838 0.223537     H
H     0.776467 0.223536 0.0642946     H
H     0.776467 0.564295 0.723536     H
H     0.776467 0.723536 0.564295     H
H     0.776468 0.0642951 0.776468     H
H     0.776468 0.276468 0.564295     H
H     0.776468 0.564295 0.276468     H
H     0.776468 0.776468 0.0642951     H
N     0.777403 0.110378 0.683032     N
N     0.777403 0.610378 0.183032     N
N     0.777403 0.683032 0.110378     N
N     0.777403 0.816972 0.610378     N
N     0.777403 0.889638 0.316972     N
C     0.778211 0.0785711 0.2214111     C
C     0.778211 0.2214111 0.9214311     C
C     0.778211 0.2785911 0.4214311     C
C     0.778211 0.4214311 0.2785911     C
C     0.778211 0.4214311 0.7214111     C
C     0.778211 0.7214111 0.4214311     C
C     0.778211 0.7785911 0.9214311     C
C     0.778211 0.9214311 0.7785911     C
C     0.779605      0.0 0.220405     C
C     0.779605      0.0 0.779605     C
C     0.779605 0.220405      0.0     C
C     0.779605 0.279605      0.5     C
C     0.779605      0.5 0.279605     C
C     0.779605      0.5 0.720405     C
C     0.779605 0.720405      0.5     C
C     0.779605 0.779605      0.0     C
N     0.786962 0.245333 0.3869911     N
N     0.786962 0.254673 0.8869911     N
N     0.786962 0.3869911 0.754673     N
H     0.795337 0.0746603 0.193109     H
H     0.795338 0.693109  0.42534     H
H     0.795341 0.425338 0.306892     H
H     0.795341 0.806892 0.925338     H
H     0.795341 0.925338 0.806892     H
H     0.798463 0.409716  0.25488     H
H     0.798463  0.75488 0.909716     H
H     0.798463 0.909716  0.75488     H
H     0.798466 0.745119 0.409715     H
H     0.798468 0.0902875 0.245118     H
N     0.799864 0.1072615 0.652883     N
N     0.799864 0.6072615 0.152883     N
N     0.799864 0.652883 0.1072615     N
N     0.799864 0.847123 0.6072615     N
N     0.799864 0.8927415 0.347123     N
C     0.802136      0.0 0.147115     C
C     0.802136      0.0 0.852895     C
C     0.802136 0.147115      0.0     C
C     0.802136 0.352895      0.5     C
C     0.802136      0.5 0.352895     C
C     0.802136      0.5 0.647115     C
C     0.802136 0.647115      0.5     C
C     0.802136 0.852895      0.0     C
H     0.806255 0.203833 0.925195     H
H     0.806255 0.296169 0.425195     H
H     0.806255 0.425195 0.703833     H
C     0.812605      0.0 0.187405     C
C     0.812605      0.0 0.812605     C
C     0.812605 0.187405      0.0     C
C     0.812605 0.312605      0.5     C
C     0.812605      0.5 0.312605     C
C     0.812605      0.5 0.687405     C
C     0.812605 0.687405      0.5     C
C     0.812605 0.812605      0.0     C
H     0.814447 0.858272 0.632301     H
N     0.816972 0.222603 0.389638     N
N     0.816972 0.277403 0.889638     N
N     0.816972 0.389638 0.777403     N
H     0.817232 0.918185  0.35099     H
H     0.823099 2.31112e-33 0.0849265     H
H     0.823099 0.0849265      0.0     H
H     0.823099      0.5 0.584926     H
H     0.823099 0.584926      0.5     H
H       0.8231 -1.2326e-32 0.915088     H
H       0.8231 0.415088      0.5     H
H       0.8231      0.5 0.415088     H
H       0.8231 0.915088      0.0     H
H     0.826593 0.623015 0.151743     H
H     0.830671 0.656208 0.109212     H
H     0.830696 0.108552 0.656295     H
C     0.831815      0.0 0.117077     C
C     0.831815      0.0 0.882937     C
C     0.831815 0.117077      0.0     C
C     0.831815 0.382937      0.5     C
C     0.831815      0.5 0.382937     C
C     0.831815      0.5 0.617077     C
C     0.831815 0.617077      0.5     C
C     0.831815 0.882937      0.0     C
N     0.847123 0.200144 0.3927415     N
N     0.847123 0.299864 0.8927415     N
N     0.847123 0.3927415 0.799864     N
H     0.849898 0.417159 0.818838     H
C     0.852895      0.0 0.197876     C
C     0.852895      0.0 0.802136     C
C     0.852895 0.197876      0.0     C
C     0.852895 0.302136      0.5     C
C     0.852895      0.5 0.302136     C
C     0.852895      0.5 0.697876     C
C     0.852895 0.697876      0.5     C
C     0.852895 0.802136      0.0     C
H      0.86154 3.08149e-33 0.230046     H
H      0.86154 0.230046      0.0     H
H      0.86154      0.5 0.730046     H
H      0.86154 0.730046      0.5     H
H     0.861541 1.2326e-32 0.769967     H
H     0.861541 0.269967      0.5     H
H     0.861541      0.5 0.269967     H
H     0.861541 0.769967      0.0     H
H       0.8626  0.30145  0.91961     H
C     0.872124      0.0 0.127884     C
C     0.872124      0.0 0.872124     C
C     0.872124 0.127884      0.0     C
C     0.872124 0.372124      0.5     C
C     0.872124      0.5 0.372124     C
C     0.872124      0.5 0.627884     C
C     0.872124 0.627884      0.5     C
C     0.872124 0.872124      0.0     C
H     0.872641 0.210325 0.407202     H
C     0.882937      0.0 0.168195     C
C     0.882937      0.0 0.831815     C
C     0.882937 0.168195      0.0     C
C     0.882937 0.331815      0.5     C
C     0.882937      0.5 0.331815     C
C     0.882937      0.5 0.668195     C
C     0.882937 0.668195      0.5     C
C     0.882937 0.831815      0.0     C
N     0.8869911 0.286962 0.245333     N
N     0.8869911 0.286962 0.754673     N
N     0.8869911 0.713042 0.245333     N
N     0.8869911 0.745333 0.786962     N
N     0.889638 0.316972 0.222603     N
N     0.889638 0.316972 0.777403     N
N     0.889638 0.683032 0.222603     N
N     0.889638 0.722603 0.816972     N
O     0.891533 -0.058967      0.0     O
O     0.891533      0.0 -0.058967     O
O     0.891533      0.0 0.058973     O
O     0.891533 0.058973      0.0     O
O     0.891533 0.441033      0.5     O
O     0.891533      0.5 0.441033     O
O     0.891533      0.5 0.558973     O
O     0.891533 0.558973      0.5     O
N     0.8927415 0.347123 0.200144     N
N     0.8927415 0.347123 0.799864     N
N     0.8927415 0.652883 0.200144     N
N     0.8927415 0.700144 0.847123     N
C     0.904614      0.0 0.095394     C
C     0.904614      0.0 0.904614     C
C     0.904614 0.095394      0.0     C
C     0.904614 0.404614      0.5     C
C     0.904614      0.5 0.404614     C
C     0.904614      0.5 0.595394     C
C     0.904614 0.595394      0.5     C
C     0.904614 0.904614      0.0     C
H     0.909715 0.745119 0.298466     H
H     0.909716 0.798463  0.75488     H
H     0.909756 0.254145 0.298444     H
H     0.909756 0.254145 0.701558     H
H     0.910547  0.70869 0.871079     H
H     0.915088 -1.84889e-32   0.8231     H
H     0.915088      0.0 0.176909     H
H     0.915088 0.176909      0.0     H
H     0.915088   0.3231      0.5     H
H     0.915088      0.5   0.3231     H
H     0.915088      0.5 0.676909     H
H     0.915088 0.676909      0.5     H
H     0.915088   0.8231      0.0     H
H     0.917574 0.350313 0.818224     H
H     0.918796 0.364007 0.200336     H
H     0.920103 0.645881 0.187251     H
C     0.9214311 0.278211 0.2785911     C
C     0.9214311 0.278211 0.7214111     C
C     0.9214311 0.7214111 0.278211     C
C     0.9214311 0.778211 0.7785911     C
Zr    0.9247527      0.0      0.0    Zr
Zr    0.9247527      0.0      1.0    Zr
Zr    0.9247527      0.5      0.5    Zr
Zr    0.9247527      1.0      0.0    Zr
H     0.925195 0.306255 0.296169     H
H     0.925195 0.306255 0.703833     H
H     0.925338 0.795341 0.806892     H
H      0.92534 0.693109 0.295338     H
Zr         1.0 -0.0752473      0.0    Zr
Zr         1.0      0.0 -0.0752473    Zr
Zr         1.0      0.0 0.0752487    Zr
Zr         1.0      0.0 0.9247527    Zr
Zr         1.0 0.0752487      0.0    Zr
Zr         1.0 0.4247527      0.5    Zr
Zr         1.0      0.5 0.4247527    Zr
Zr         1.0      0.5 0.5752487    Zr
Zr         1.0 0.5752487      0.5    Zr
Zr         1.0 0.9247527      0.0    Zr
