data_I
_chemical_name_common  '/home/zhangsd/repos/MofS-CGCNN/ML/data/WS24/clean_cifs/PCN-56'
_cell_length_a 32.60031
_cell_length_b 32.60031
_cell_length_c 32.60031
_cell_angle_alpha 90.00000
_cell_angle_beta  90.00000
_cell_angle_gamma 90.00000
_space_group_name_H-M_alt      'P 1'


loop_
_space_group_symop_operation_xyz
  'x, y, z' 

loop_
_atom_site_label
_atom_site_fract_x
_atom_site_fract_y
_atom_site_fract_z
_atom_site_type_symbol
H     -0.0982072 0.280688 0.247349     H
H     -0.0982072 0.280688 0.752651     H
H     -0.0982072 0.719312 0.752651     H
H     -0.0982072 0.752651 0.280688     H
H     -0.0783074 0.310304 0.288611     H
H     -0.0783074 0.310304 0.711389     H
H     -0.0783074 0.689696 0.711389     H
H     -0.0783074 0.711389 0.310304     H
Zr    -0.07521617      0.0      0.0    Zr
Zr    -0.07521617      0.0      1.0    Zr
Zr    -0.07521617      0.5      0.5    Zr
Zr    -0.07521617      1.0      0.0    Zr
C     -0.07117  0.29627  0.25921     C
C     -0.07117  0.29627  0.74081     C
C     -0.07117  0.70387  0.74081     C
C     -0.07117  0.74081  0.29627     C
H     -0.0652123 0.223279 0.223279     H
H     -0.0652123 0.223279 0.776721     H
H     -0.0652123 0.776721 0.223279     H
H     -0.0652123 0.776721 0.776721     H
H     -0.0614369 0.319787  0.23761     H
H     -0.0614369 0.319787  0.76239     H
H     -0.0614369 0.680213  0.76239     H
H     -0.0614369  0.76239 0.319787     H
O     -0.0584111      0.0 0.108511     O
O     -0.0584111      0.0 0.891491     O
O     -0.0584111 0.108511      0.0     O
O     -0.0584111 0.391491      0.5     O
O     -0.0584111      0.5 0.391491     O
O     -0.0584111      0.5 0.608511     O
O     -0.0584111 0.608511      0.5     O
O     -0.0584111 0.891491      0.0     O
O     -0.036669 -0.036669 0.036669     O
O     -0.036669 -0.036669 0.963349     O
O     -0.036669 0.036669 -0.036669     O
O     -0.036669 0.036669 0.036669     O
O     -0.036669 0.463349 0.463349     O
O     -0.036669 0.463349 0.536669     O
O     -0.036669 0.536669 0.463349     O
O     -0.036669 0.536669 0.536669     O
C     -0.0363012 0.235117 0.235117     C
C     -0.0363012 0.235117 0.764897     C
C     -0.0363012 0.264897 0.264897     C
C     -0.0363012 0.264897 0.735117     C
C     -0.0363012 0.735117 0.264897     C
C     -0.0363012 0.735117 0.735117     C
C     -0.0363012 0.764897 0.235117     C
C     -0.0363012 0.764897 0.764897     C
H     -1.2326e-32 0.415195 0.676642     H
H     -1.2326e-32 0.676642 0.415195     H
H     -6.16298e-33 0.229993  0.86176     H
H     -6.16298e-33 0.323358 0.584805     H
H     -6.16298e-33  0.36176 0.729993     H
H     -6.16298e-33 0.584805 0.676642     H
H     -6.16298e-33 0.676642 0.584805     H
H     -4.62223e-33 0.229993  0.13824     H
Zr         0.0 -0.07521617      0.0    Zr
Zr         0.0 -0.07521617      1.0    Zr
O          0.0 -0.0584111 0.108511     O
O          0.0 -0.0584111 0.891491     O
Zr         0.0      0.0 -0.07521617    Zr
Zr         0.0      0.0 0.07521617    Zr
Zr         0.0      0.0 0.92478417    Zr
O          0.0 0.0584111 0.108511     O
O          0.0 0.0584111 0.891491     O
Zr         0.0 0.07521617      0.0    Zr
Zr         0.0 0.07521617      1.0    Zr
H          0.0 0.0848045 0.823358     H
C          0.0 0.0953616 0.0953616     C
C          0.0 0.0953616 0.9046416     C
O          0.0 0.108511 -0.0584111     O
O          0.0 0.108511 0.0584111     O
C          0.0 0.1170814 0.1680312     C
C          0.0 0.1170814 0.8319712     C
C          0.0 0.1279712 0.1279712     C
C          0.0 0.1279712 0.8720312     C
H          0.0  0.13824 0.229993     H
C          0.0 0.1468613 0.1977216     C
C          0.0 0.1468613 0.8022816     C
C          0.0 0.1680312 0.1170814     C
C          0.0 0.1680312 0.8829214     C
H          0.0 0.176642 0.915195     H
C          0.0 0.1869714 0.1869714     C
C          0.0 0.1869714 0.8130314     C
C          0.0 0.1977216 0.1468613     C
C          0.0 0.1977216 0.8531413     C
C          0.0 0.2203611 0.2203611     C
C          0.0 0.2203611 0.7796411     C
H          0.0 0.270007  0.36176     H
H          0.0 0.270007  0.63824     H
C          0.0 0.2796411 0.2796411     C
C          0.0 0.2796411 0.7203611     C
C          0.0 0.3022816 0.3531413     C
C          0.0 0.3022816 0.6468613     C
C          0.0 0.3130314 0.3130314     C
C          0.0 0.3130314 0.6869714     C
C          0.0 0.3319712 0.3829214     C
C          0.0 0.3319712 0.6170814     C
C          0.0 0.3531413 0.3022816     C
C          0.0 0.3531413 0.6977216     C
H          0.0  0.36176 0.270007     H
C          0.0 0.3720312 0.3720312     C
C          0.0 0.3720312 0.6279712     C
C          0.0 0.3829214 0.3319712     C
C          0.0 0.3829214 0.6680312     C
O          0.0 0.391491 0.4415911     O
O          0.0 0.391491 0.5584111     O
C          0.0 0.4046416 0.4046416     C
C          0.0 0.4046416 0.5953616     C
Zr         0.0 0.42478417      0.5    Zr
O          0.0 0.4415911 0.391491     O
O          0.0 0.4415911 0.608511     O
Zr         0.0      0.5 0.42478417    Zr
Zr         0.0      0.5 0.57521617    Zr
O          0.0 0.5584111 0.391491     O
O          0.0 0.5584111 0.608511     O
Zr         0.0 0.57521617      0.5    Zr
H          0.0 0.584805 0.323358     H
C          0.0 0.5953616 0.4046416     C
C          0.0 0.5953616 0.5953616     C
O          0.0 0.608511 0.4415911     O
O          0.0 0.608511 0.5584111     O
C          0.0 0.6170814 0.3319712     C
C          0.0 0.6170814 0.6680312     C
C          0.0 0.6279712 0.3720312     C
C          0.0 0.6279712 0.6279712     C
C          0.0 0.6468613 0.3022816     C
C          0.0 0.6468613 0.6977216     C
C          0.0 0.6680312 0.3829214     C
C          0.0 0.6680312 0.6170814     C
C          0.0 0.6869714 0.3130314     C
C          0.0 0.6869714 0.6869714     C
C          0.0 0.6977216 0.3531413     C
C          0.0 0.6977216 0.6468613     C
C          0.0 0.7203611 0.2796411     C
C          0.0 0.7203611 0.7203611     C
H          0.0 0.729993  0.36176     H
C          0.0 0.7796411 0.2203611     C
C          0.0 0.7796411 0.7796411     C
C          0.0 0.8022816 0.1468613     C
C          0.0 0.8022816 0.8531413     C
C          0.0 0.8130314 0.1869714     C
C          0.0 0.8130314 0.8130314     C
C          0.0 0.8319712 0.1170814     C
C          0.0 0.8319712 0.8829214     C
C          0.0 0.8531413 0.1977216     C
C          0.0 0.8531413 0.8022816     C
H          0.0  0.86176 0.229993     H
C          0.0 0.8720312 0.1279712     C
C          0.0 0.8720312 0.8720312     C
C          0.0 0.8829214 0.1680312     C
C          0.0 0.8829214 0.8319712     C
O          0.0 0.891491 -0.0584111     O
O          0.0 0.891491 0.0584111     O
C          0.0 0.9046416 0.0953616     C
C          0.0 0.9046416 0.9046416     C
Zr         0.0 0.92478417      0.0    Zr
Zr         0.0 0.92478417      1.0    Zr
Zr         0.0      1.0 -0.07521617    Zr
Zr         0.0      1.0 0.07521617    Zr
Zr         0.0      1.0 0.92478417    Zr
H     3.08149e-33 0.0848045 0.176642     H
H     3.08149e-33  0.63824 0.270007     H
H     3.85186e-33 0.176642 0.0848045     H
H     3.85186e-33 0.823358 0.0848045     H
H     6.16298e-33 0.323358 0.415195     H
H     6.16298e-33 0.415195 0.323358     H
H     6.16298e-33  0.63824 0.729993     H
H     6.16298e-33 0.729993  0.63824     H
H     6.16298e-33 0.770007  0.86176     H
H     6.16298e-33  0.86176 0.770007     H
H     6.16298e-33 0.915195 0.176642     H
H     1.2326e-32  0.13824 0.770007     H
H     1.2326e-32 0.770007  0.13824     H
H     1.2326e-32 0.823358 0.915195     H
H     1.84889e-32 0.915195 0.823358     H
C     0.0363012 0.235117 0.235117     C
C     0.0363012 0.235117 0.764897     C
C     0.0363012 0.264897 0.264897     C
C     0.0363012 0.264897 0.735117     C
C     0.0363012 0.735117 0.264897     C
C     0.0363012 0.735117 0.735117     C
C     0.0363012 0.764897 0.235117     C
C     0.0363012 0.764897 0.764897     C
O     0.036669 -0.036669 -0.036669     O
O     0.036669 -0.036669 0.036669     O
O     0.036669 0.036669 -0.036669     O
O     0.036669 0.036669 0.036669     O
O     0.036669 0.463349 0.463349     O
O     0.036669 0.463349 0.536669     O
O     0.036669 0.536669 0.463349     O
O     0.036669 0.536669 0.536669     O
O     0.0584111      0.0 0.108511     O
O     0.0584111      0.0 0.891491     O
O     0.0584111 0.108511      0.0     O
O     0.0584111 0.391491      0.5     O
O     0.0584111      0.5 0.391491     O
O     0.0584111      0.5 0.608511     O
O     0.0584111 0.608511      0.5     O
O     0.0584111 0.891491      0.0     O
H     0.0614369 0.180213  0.26239     H
H     0.0614369 0.180213  0.73761     H
H     0.0614369  0.73761 0.180213     H
H     0.0614369 0.819787  0.73761     H
H     0.0652123 0.276721 0.276721     H
H     0.0652123 0.276721 0.723279     H
H     0.0652123 0.723279 0.276721     H
H     0.0652123 0.723279 0.723279     H
C      0.07117  0.20387  0.24081     C
C      0.07117  0.20387  0.75921     C
C      0.07117  0.75921  0.20387     C
C      0.07117  0.79627  0.75921     C
Zr    0.07521617      0.0      0.0    Zr
Zr    0.07521617      0.0      1.0    Zr
Zr    0.07521617      0.5      0.5    Zr
Zr    0.07521617      1.0      0.0    Zr
H     0.0783074 0.189696 0.211389     H
H     0.0783074 0.189696 0.788611     H
H     0.0783074 0.788611 0.189696     H
H     0.0783074 0.810304 0.788611     H
H     0.0848045 3.08149e-33 0.176642     H
H     0.0848045 1.2326e-32 0.823358     H
H     0.0848045 0.176642      0.0     H
H     0.0848045 0.323358      0.5     H
H     0.0848045      0.5 0.323358     H
H     0.0848045      0.5 0.676642     H
H     0.0848045 0.676642      0.5     H
H     0.0848045 0.823358      0.0     H
C     0.0953616      0.0 0.0953616     C
C     0.0953616      0.0 0.9046416     C
C     0.0953616 0.0953616      0.0     C
C     0.0953616 0.4046416      0.5     C
C     0.0953616      0.5 0.4046416     C
C     0.0953616      0.5 0.5953616     C
C     0.0953616 0.5953616      0.5     C
C     0.0953616 0.9046416      0.0     C
H     0.0982072 0.219312 0.252651     H
H     0.0982072 0.219312 0.747349     H
H     0.0982072 0.747349 0.219312     H
H     0.0982072 0.780688 0.747349     H
O     0.108511 -0.0584111      0.0     O
O     0.108511      0.0 -0.0584111     O
O     0.108511      0.0 0.0584111     O
O     0.108511 0.0584111      0.0     O
O     0.108511 0.4415911      0.5     O
O     0.108511      0.5 0.4415911     O
O     0.108511      0.5 0.5584111     O
O     0.108511 0.5584111      0.5     O
C     0.1170814      0.0 0.1680312     C
C     0.1170814      0.0 0.8319712     C
C     0.1170814 0.1680312      0.0     C
C     0.1170814 0.3319712      0.5     C
C     0.1170814      0.5 0.3319712     C
C     0.1170814      0.5 0.6680312     C
C     0.1170814 0.6680312      0.5     C
C     0.1170814 0.8319712      0.0     C
C     0.1279712      0.0 0.1279712     C
C     0.1279712      0.0 0.8720312     C
C     0.1279712 0.1279712      0.0     C
C     0.1279712 0.3720312      0.5     C
C     0.1279712      0.5 0.3720312     C
C     0.1279712      0.5 0.6279712     C
C     0.1279712 0.6279712      0.5     C
C     0.1279712 0.8720312      0.0     C
H      0.13824 -3.08149e-33 0.229993     H
H      0.13824 1.2326e-32 0.770007     H
H      0.13824 0.229993      0.0     H
H      0.13824 0.270007      0.5     H
H      0.13824      0.5 0.270007     H
H      0.13824      0.5 0.729993     H
H      0.13824 0.729993      0.5     H
H      0.13824 0.770007      0.0     H
C     0.1468613      0.0 0.1977216     C
C     0.1468613      0.0 0.8022816     C
C     0.1468613 0.1977216      0.0     C
C     0.1468613 0.3022816      0.5     C
C     0.1468613      0.5 0.3022816     C
C     0.1468613      0.5 0.6977216     C
C     0.1468613 0.6977216      0.5     C
C     0.1468613 0.8022816      0.0     C
C     0.1680312      0.0 0.1170814     C
C     0.1680312      0.0 0.8829214     C
C     0.1680312 0.1170814      0.0     C
C     0.1680312 0.3829214      0.5     C
C     0.1680312      0.5 0.3829214     C
C     0.1680312      0.5 0.6170814     C
C     0.1680312 0.6170814      0.5     C
C     0.1680312 0.8829214      0.0     C
H     0.176642 7.70372e-34 0.0848045     H
H     0.176642 2.46519e-32 0.915195     H
H     0.176642 0.0848045      0.0     H
H     0.176642 0.415195      0.5     H
H     0.176642      0.5 0.415195     H
H     0.176642      0.5 0.584805     H
H     0.176642 0.584805      0.5     H
H     0.176642 0.915195      0.0     H
H     0.180213  0.23761 0.438563     H
H     0.180213  0.26239 0.0614369     H
H     0.180213 0.561437  0.76239     H
C     0.1869714      0.0 0.1869714     C
C     0.1869714      0.0 0.8130314     C
C     0.1869714 0.1869714      0.0     C
C     0.1869714 0.3130314      0.5     C
C     0.1869714      0.5 0.3130314     C
C     0.1869714      0.5 0.6869714     C
C     0.1869714 0.6869714      0.5     C
C     0.1869714 0.8130314      0.0     C
H     0.189696 0.211389 0.0783074     H
H     0.189696 0.288611 0.421693     H
H     0.189696 0.578307 0.711389     H
C     0.1977216      0.0 0.1468613     C
C     0.1977216      0.0 0.8531413     C
C     0.1977216 0.1468613      0.0     C
C     0.1977216 0.3531413      0.5     C
C     0.1977216      0.5 0.3531413     C
C     0.1977216      0.5 0.6468613     C
C     0.1977216 0.6468613      0.5     C
C     0.1977216 0.8531413      0.0     C
C      0.20387  0.24081  0.07117     C
C      0.20387  0.25921  0.42897     C
C      0.20387  0.57117  0.74081     C
H     0.211389 0.0783074 0.189696     H
H     0.211389 0.0783074 0.810304     H
H     0.211389 0.578307 0.310304     H
H     0.211389 0.689696 0.578307     H
H     0.211389 0.810304 -0.0783074     H
H     0.219312 0.247349 0.401793     H
H     0.219312 0.252651 0.0982072     H
H     0.219312 0.598207 0.752651     H
C     0.2203611      0.0 0.2203611     C
C     0.2203611      0.0 0.7796411     C
C     0.2203611 0.2203611      0.0     C
C     0.2203611 0.2796411      0.5     C
C     0.2203611      0.5 0.2796411     C
C     0.2203611      0.5 0.7203611     C
C     0.2203611 0.7203611      0.5     C
C     0.2203611 0.7796411      0.0     C
H     0.223279 -0.0652123 0.223279     H
H     0.223279 -0.0652123 0.776721     H
H     0.223279 0.223279 -0.0652123     H
H     0.223279 0.276721 0.565212     H
H     0.223279 0.434788 0.276721     H
H     0.223279 0.434788 0.723279     H
H     0.223279 0.723279 0.434788     H
H     0.223279 0.776721 0.0652123     H
H     0.229993 -1.54074e-33  0.13824     H
H     0.229993 6.16298e-33  0.86176     H
H     0.229993  0.13824      0.0     H
H     0.229993  0.36176      0.5     H
H     0.229993      0.5  0.36176     H
H     0.229993      0.5  0.63824     H
H     0.229993  0.63824      0.5     H
H     0.229993  0.86176      0.0     H
C     0.235117 -0.0363012 0.235117     C
C     0.235117 -0.0363012 0.764897     C
C     0.235117 0.0363012 0.235117     C
C     0.235117 0.0363012 0.764897     C
C     0.235117 0.235117 -0.0363012     C
C     0.235117 0.235117 0.0363012     C
C     0.235117 0.264897 0.4637012     C
C     0.235117 0.264897 0.5363012     C
C     0.235117 0.4637012 0.264897     C
C     0.235117 0.4637012 0.735117     C
C     0.235117 0.5363012 0.264897     C
C     0.235117 0.5363012 0.735117     C
C     0.235117 0.735117 0.4637012     C
C     0.235117 0.735117 0.5363012     C
C     0.235117 0.764897 -0.0363012     C
C     0.235117 0.764897 0.0363012     C
H      0.23761 -0.0614369 0.319787     H
H      0.23761 -0.0614369 0.680213     H
H      0.23761 0.438563 0.180213     H
H      0.23761 0.680213 0.0614369     H
H      0.23761 0.819787 0.438563     H
C      0.24081  0.07117  0.20387     C
C      0.24081  0.07117  0.79627     C
C      0.24081  0.57117  0.29627     C
C      0.24081  0.70387  0.57117     C
C      0.24081  0.79627 -0.07117     C
H     0.247349 -0.0982072 0.280688     H
H     0.247349 -0.0982072 0.719312     H
H     0.247349 0.401793 0.219312     H
H     0.247349 0.719312 0.0982072     H
H     0.247349 0.780688 0.401793     H
H     0.252651 0.0982072 0.219312     H
H     0.252651 0.0982072 0.780688     H
H     0.252651 0.598207 0.280688     H
H     0.252651 0.719312 0.598207     H
H     0.252651 0.780688 -0.0982072     H
C      0.25921 -0.07117  0.29627     C
C      0.25921 -0.07117  0.70387     C
C      0.25921  0.42897  0.20387     C
C      0.25921  0.70387  0.07117     C
C      0.25921  0.79627  0.42897     C
H      0.26239 0.0614369 0.180213     H
H      0.26239 0.0614369 0.819787     H
H      0.26239 0.561437 0.319787     H
H      0.26239 0.680213 0.561437     H
H      0.26239 0.819787 -0.0614369     H
C     0.264897 -0.0363012 0.264897     C
C     0.264897 -0.0363012 0.735117     C
C     0.264897 0.0363012 0.264897     C
C     0.264897 0.0363012 0.735117     C
C     0.264897 0.235117 0.4637012     C
C     0.264897 0.235117 0.5363012     C
C     0.264897 0.264897 -0.0363012     C
C     0.264897 0.264897 0.0363012     C
C     0.264897 0.4637012 0.235117     C
C     0.264897 0.4637012 0.764897     C
C     0.264897 0.5363012 0.235117     C
C     0.264897 0.5363012 0.764897     C
C     0.264897 0.735117 -0.0363012     C
C     0.264897 0.735117 0.0363012     C
C     0.264897 0.764897 0.4637012     C
C     0.264897 0.764897 0.5363012     C
H     0.270007 -3.08149e-33  0.36176     H
H     0.270007      0.0  0.63824     H
H     0.270007  0.13824      0.5     H
H     0.270007  0.36176      0.0     H
H     0.270007      0.5  0.13824     H
H     0.270007      0.5  0.86176     H
H     0.270007  0.63824      0.0     H
H     0.270007  0.86176      0.5     H
H     0.276721 0.0652123 0.276721     H
H     0.276721 0.0652123 0.723279     H
H     0.276721 0.223279 0.434788     H
H     0.276721 0.276721 0.0652123     H
H     0.276721 0.565212 0.223279     H
H     0.276721 0.565212 0.776721     H
H     0.276721 0.723279 -0.0652123     H
H     0.276721 0.776721 0.565212     H
C     0.2796411      0.0 0.2796411     C
C     0.2796411      0.0 0.7203611     C
C     0.2796411 0.2203611      0.5     C
C     0.2796411 0.2796411      0.0     C
C     0.2796411      0.5 0.2203611     C
C     0.2796411      0.5 0.7796411     C
C     0.2796411 0.7203611      0.0     C
C     0.2796411 0.7796411      0.5     C
H     0.280688 0.247349 -0.0982072     H
H     0.280688 0.252651 0.598207     H
H     0.280688 0.401793 0.747349     H
H     0.288611 -0.0783074 0.310304     H
H     0.288611 -0.0783074 0.689696     H
H     0.288611 0.421693 0.189696     H
H     0.288611 0.689696 0.0783074     H
H     0.288611 0.810304 0.421693     H
C      0.29627  0.24081  0.57117     C
C      0.29627  0.25921 -0.07117     C
C      0.29627  0.42897  0.75921     C
C     0.3022816      0.0 0.3531413     C
C     0.3022816      0.0 0.6468613     C
C     0.3022816 0.1468613      0.5     C
C     0.3022816 0.3531413      0.0     C
C     0.3022816      0.5 0.1468613     C
C     0.3022816      0.5 0.8531413     C
C     0.3022816 0.6468613      0.0     C
C     0.3022816 0.8531413      0.5     C
H     0.310304 0.211389 0.578307     H
H     0.310304 0.288611 -0.0783074     H
H     0.310304 0.421693 0.788611     H
C     0.3130314      0.0 0.3130314     C
C     0.3130314      0.0 0.6869714     C
C     0.3130314 0.1869714      0.5     C
C     0.3130314 0.3130314      0.0     C
C     0.3130314      0.5 0.1869714     C
C     0.3130314      0.5 0.8130314     C
C     0.3130314 0.6869714      0.0     C
C     0.3130314 0.8130314      0.5     C
H     0.319787  0.23761 -0.0614369     H
H     0.319787  0.26239 0.561437     H
H     0.319787 0.438563  0.73761     H
H     0.323358 -6.16298e-33 0.584805     H
H     0.323358 -3.08149e-33 0.415195     H
H     0.323358 0.0848045      0.5     H
H     0.323358 0.415195      0.0     H
H     0.323358      0.5 0.0848045     H
H     0.323358      0.5 0.915195     H
H     0.323358 0.584805      0.0     H
H     0.323358 0.915195      0.5     H
C     0.3319712      0.0 0.3829214     C
C     0.3319712      0.0 0.6170814     C
C     0.3319712 0.1170814      0.5     C
C     0.3319712 0.3829214      0.0     C
C     0.3319712      0.5 0.1170814     C
C     0.3319712      0.5 0.8829214     C
C     0.3319712 0.6170814      0.0     C
C     0.3319712 0.8829214      0.5     C
C     0.3531413      0.0 0.3022816     C
C     0.3531413      0.0 0.6977216     C
C     0.3531413 0.1977216      0.5     C
C     0.3531413 0.3022816      0.0     C
C     0.3531413      0.5 0.1977216     C
C     0.3531413      0.5 0.8022816     C
C     0.3531413 0.6977216      0.0     C
C     0.3531413 0.8022816      0.5     C
H      0.36176 -3.08149e-33 0.270007     H
H      0.36176      0.0 0.729993     H
H      0.36176 0.229993      0.5     H
H      0.36176 0.270007      0.0     H
H      0.36176      0.5 0.229993     H
H      0.36176      0.5 0.770007     H
H      0.36176 0.729993      0.0     H
H      0.36176 0.770007      0.5     H
C     0.3720312      0.0 0.3720312     C
C     0.3720312      0.0 0.6279712     C
C     0.3720312 0.1279712      0.5     C
C     0.3720312 0.3720312      0.0     C
C     0.3720312      0.5 0.1279712     C
C     0.3720312      0.5 0.8720312     C
C     0.3720312 0.6279712      0.0     C
C     0.3720312 0.8720312      0.5     C
C     0.3829214      0.0 0.3319712     C
C     0.3829214      0.0 0.6680312     C
C     0.3829214 0.1680312      0.5     C
C     0.3829214 0.3319712      0.0     C
C     0.3829214      0.5 0.1680312     C
C     0.3829214      0.5 0.8319712     C
C     0.3829214 0.6680312      0.0     C
C     0.3829214 0.8319712      0.5     C
O     0.391491 -0.0584111      0.5     O
O     0.391491      0.0 0.4415911     O
O     0.391491      0.0 0.5584111     O
O     0.391491 0.0584111      0.5     O
O     0.391491 0.4415911      0.0     O
O     0.391491      0.5 -0.0584111     O
O     0.391491      0.5 0.0584111     O
O     0.391491 0.5584111      0.0     O
H     0.401793 0.247349 0.780688     H
H     0.401793 0.252651 0.280688     H
H     0.401793 0.719312 0.252651     H
H     0.401793 0.719312 0.747349     H
C     0.4046416      0.0 0.4046416     C
C     0.4046416      0.0 0.5953616     C
C     0.4046416 0.0953616      0.5     C
C     0.4046416 0.4046416      0.0     C
C     0.4046416      0.5 0.0953616     C
C     0.4046416      0.5 0.9046416     C
C     0.4046416 0.5953616      0.0     C
C     0.4046416 0.9046416      0.5     C
H     0.415195 -6.16298e-33 0.676642     H
H     0.415195 6.16298e-33 0.323358     H
H     0.415195 0.176642      0.5     H
H     0.415195 0.323358      0.0     H
H     0.415195      0.5 0.176642     H
H     0.415195      0.5 0.823358     H
H     0.415195 0.676642      0.0     H
H     0.415195 0.823358      0.5     H
H     0.421693 0.211389 0.310304     H
H     0.421693 0.288611 0.810304     H
H     0.421693 0.689696 0.211389     H
H     0.421693 0.689696 0.788611     H
Zr    0.42478417      0.0      0.5    Zr
Zr    0.42478417      0.5      0.0    Zr
Zr    0.42478417      0.5      1.0    Zr
Zr    0.42478417      1.0      0.5    Zr
C      0.42897  0.24081  0.29627     C
C      0.42897  0.25921  0.79627     C
C      0.42897  0.70387  0.24081     C
C      0.42897  0.70387  0.75921     C
H     0.434788 0.223279 0.723279     H
H     0.434788 0.276721 0.223279     H
H     0.434788 0.776721 0.276721     H
H     0.434788 0.776721 0.723279     H
H     0.438563  0.23761 0.819787     H
H     0.438563  0.26239 0.319787     H
H     0.438563 0.680213  0.26239     H
H     0.438563 0.680213  0.73761     H
O     0.4415911      0.0 0.391491     O
O     0.4415911      0.0 0.608511     O
O     0.4415911 0.108511      0.5     O
O     0.4415911 0.391491      0.0     O
O     0.4415911      0.5 0.108511     O
O     0.4415911      0.5 0.891491     O
O     0.4415911 0.608511      0.0     O
O     0.4415911 0.891491      0.5     O
O     0.463349 -0.036669 0.463349     O
O     0.463349 -0.036669 0.536669     O
O     0.463349 0.036669 0.463349     O
O     0.463349 0.036669 0.536669     O
O     0.463349 0.463349 -0.036669     O
O     0.463349 0.463349 0.036669     O
O     0.463349 0.536669 -0.036669     O
O     0.463349 0.536669 0.036669     O
C     0.4637012 0.235117 0.264897     C
C     0.4637012 0.235117 0.735117     C
C     0.4637012 0.264897 0.235117     C
C     0.4637012 0.264897 0.764897     C
C     0.4637012 0.735117 0.235117     C
C     0.4637012 0.735117 0.764897     C
C     0.4637012 0.764897 0.264897     C
C     0.4637012 0.764897 0.735117     C
Zr         0.5 -0.07521617      0.5    Zr
O          0.5 -0.0584111 0.391491     O
O          0.5 -0.0584111 0.608511     O
Zr         0.5      0.0 0.42478417    Zr
Zr         0.5      0.0 0.57521617    Zr
O          0.5 0.0584111 0.391491     O
O          0.5 0.0584111 0.608511     O
Zr         0.5 0.07521617      0.5    Zr
H          0.5 0.0848045 0.323358     H
H          0.5 0.0848045 0.676642     H
C          0.5 0.0953616 0.4046416     C
C          0.5 0.0953616 0.5953616     C
O          0.5 0.108511 0.4415911     O
O          0.5 0.108511 0.5584111     O
C          0.5 0.1170814 0.3319712     C
C          0.5 0.1170814 0.6680312     C
C          0.5 0.1279712 0.3720312     C
C          0.5 0.1279712 0.6279712     C
H          0.5  0.13824 0.270007     H
H          0.5  0.13824 0.729993     H
C          0.5 0.1468613 0.3022816     C
C          0.5 0.1468613 0.6977216     C
C          0.5 0.1680312 0.3829214     C
C          0.5 0.1680312 0.6170814     C
H          0.5 0.176642 0.415195     H
H          0.5 0.176642 0.584805     H
C          0.5 0.1869714 0.3130314     C
C          0.5 0.1869714 0.6869714     C
C          0.5 0.1977216 0.3531413     C
C          0.5 0.1977216 0.6468613     C
C          0.5 0.2203611 0.2796411     C
C          0.5 0.2203611 0.7203611     C
H          0.5 0.229993  0.36176     H
H          0.5 0.229993  0.63824     H
H          0.5 0.270007  0.13824     H
H          0.5 0.270007  0.86176     H
C          0.5 0.2796411 0.2203611     C
C          0.5 0.2796411 0.7796411     C
C          0.5 0.3022816 0.1468613     C
C          0.5 0.3022816 0.8531413     C
C          0.5 0.3130314 0.1869714     C
C          0.5 0.3130314 0.8130314     C
H          0.5 0.323358 0.0848045     H
H          0.5 0.323358 0.915195     H
C          0.5 0.3319712 0.1170814     C
C          0.5 0.3319712 0.8829214     C
C          0.5 0.3531413 0.1977216     C
C          0.5 0.3531413 0.8022816     C
H          0.5  0.36176 0.229993     H
H          0.5  0.36176 0.770007     H
C          0.5 0.3720312 0.1279712     C
C          0.5 0.3720312 0.8720312     C
C          0.5 0.3829214 0.1680312     C
C          0.5 0.3829214 0.8319712     C
O          0.5 0.391491 -0.0584111     O
O          0.5 0.391491 0.0584111     O
C          0.5 0.4046416 0.0953616     C
C          0.5 0.4046416 0.9046416     C
H          0.5 0.415195 0.176642     H
H          0.5 0.415195 0.823358     H
Zr         0.5 0.42478417      0.0    Zr
Zr         0.5 0.42478417      1.0    Zr
O          0.5 0.4415911 0.108511     O
O          0.5 0.4415911 0.891491     O
Zr         0.5      0.5 -0.07521617    Zr
Zr         0.5      0.5 0.07521617    Zr
Zr         0.5      0.5 0.92478417    Zr
O          0.5 0.5584111 0.108511     O
O          0.5 0.5584111 0.891491     O
Zr         0.5 0.57521617      0.0    Zr
Zr         0.5 0.57521617      1.0    Zr
H          0.5 0.584805 0.176642     H
H          0.5 0.584805 0.823358     H
C          0.5 0.5953616 0.0953616     C
C          0.5 0.5953616 0.9046416     C
O          0.5 0.608511 -0.0584111     O
O          0.5 0.608511 0.0584111     O
C          0.5 0.6170814 0.1680312     C
C          0.5 0.6170814 0.8319712     C
C          0.5 0.6279712 0.1279712     C
C          0.5 0.6279712 0.8720312     C
H          0.5  0.63824 0.229993     H
H          0.5  0.63824 0.770007     H
C          0.5 0.6468613 0.1977216     C
C          0.5 0.6468613 0.8022816     C
C          0.5 0.6680312 0.1170814     C
C          0.5 0.6680312 0.8829214     C
H          0.5 0.676642 0.0848045     H
H          0.5 0.676642 0.915195     H
C          0.5 0.6869714 0.1869714     C
C          0.5 0.6869714 0.8130314     C
C          0.5 0.6977216 0.1468613     C
C          0.5 0.6977216 0.8531413     C
C          0.5 0.7203611 0.2203611     C
C          0.5 0.7203611 0.7796411     C
H          0.5 0.729993  0.13824     H
H          0.5 0.729993  0.86176     H
H          0.5 0.770007  0.36176     H
H          0.5 0.770007  0.63824     H
C          0.5 0.7796411 0.2796411     C
C          0.5 0.7796411 0.7203611     C
C          0.5 0.8022816 0.3531413     C
C          0.5 0.8022816 0.6468613     C
C          0.5 0.8130314 0.3130314     C
C          0.5 0.8130314 0.6869714     C
H          0.5 0.823358 0.415195     H
H          0.5 0.823358 0.584805     H
C          0.5 0.8319712 0.3829214     C
C          0.5 0.8319712 0.6170814     C
C          0.5 0.8531413 0.3022816     C
C          0.5 0.8531413 0.6977216     C
H          0.5  0.86176 0.270007     H
H          0.5  0.86176 0.729993     H
C          0.5 0.8720312 0.3720312     C
C          0.5 0.8720312 0.6279712     C
C          0.5 0.8829214 0.3319712     C
C          0.5 0.8829214 0.6680312     C
O          0.5 0.891491 0.4415911     O
O          0.5 0.891491 0.5584111     O
C          0.5 0.9046416 0.4046416     C
C          0.5 0.9046416 0.5953616     C
H          0.5 0.915195 0.323358     H
H          0.5 0.915195 0.676642     H
Zr         0.5 0.92478417      0.5    Zr
Zr         0.5      1.0 0.42478417    Zr
Zr         0.5      1.0 0.57521617    Zr
C     0.5363012 0.235117 0.264897     C
C     0.5363012 0.235117 0.735117     C
C     0.5363012 0.264897 0.235117     C
C     0.5363012 0.264897 0.764897     C
C     0.5363012 0.735117 0.235117     C
C     0.5363012 0.735117 0.764897     C
C     0.5363012 0.764897 0.264897     C
C     0.5363012 0.764897 0.735117     C
O     0.536669 -0.036669 0.463349     O
O     0.536669 -0.036669 0.536669     O
O     0.536669 0.036669 0.463349     O
O     0.536669 0.036669 0.536669     O
O     0.536669 0.463349 -0.036669     O
O     0.536669 0.463349 0.036669     O
O     0.536669 0.536669 -0.036669     O
O     0.536669 0.536669 0.036669     O
O     0.5584111      0.0 0.391491     O
O     0.5584111      0.0 0.608511     O
O     0.5584111 0.108511      0.5     O
O     0.5584111 0.391491      0.0     O
O     0.5584111      0.5 0.108511     O
O     0.5584111      0.5 0.891491     O
O     0.5584111 0.608511      0.0     O
O     0.5584111 0.891491      0.5     O
H     0.561437  0.23761 0.180213     H
H     0.561437  0.26239 0.680213     H
H     0.561437 0.819787  0.23761     H
H     0.561437 0.819787  0.76239     H
H     0.565212 0.223279 0.276721     H
H     0.565212 0.276721 0.776721     H
H     0.565212 0.723279 0.223279     H
H     0.565212 0.723279 0.776721     H
C      0.57117  0.24081  0.70387     C
C      0.57117  0.25921  0.20387     C
C      0.57117  0.79627  0.25921     C
C      0.57117  0.79627  0.74081     C
Zr    0.57521617      0.0      0.5    Zr
Zr    0.57521617      0.5      0.0    Zr
Zr    0.57521617      0.5      1.0    Zr
Zr    0.57521617      1.0      0.5    Zr
H     0.578307 0.211389 0.689696     H
H     0.578307 0.288611 0.189696     H
H     0.578307 0.810304 0.288611     H
H     0.578307 0.810304 0.711389     H
H     0.584805 -6.16298e-33 0.676642     H
H     0.584805 6.16298e-33 0.323358     H
H     0.584805 0.176642      0.5     H
H     0.584805 0.323358      0.0     H
H     0.584805      0.5 0.176642     H
H     0.584805      0.5 0.823358     H
H     0.584805 0.676642      0.0     H
H     0.584805 0.823358      0.5     H
C     0.5953616      0.0 0.4046416     C
C     0.5953616      0.0 0.5953616     C
C     0.5953616 0.0953616      0.5     C
C     0.5953616 0.4046416      0.0     C
C     0.5953616      0.5 0.0953616     C
C     0.5953616      0.5 0.9046416     C
C     0.5953616 0.5953616      0.0     C
C     0.5953616 0.9046416      0.5     C
H     0.598207 0.247349 0.219312     H
H     0.598207 0.252651 0.719312     H
H     0.598207 0.780688 0.247349     H
H     0.598207 0.780688 0.752651     H
O     0.608511 -0.0584111      0.5     O
O     0.608511      0.0 0.4415911     O
O     0.608511      0.0 0.5584111     O
O     0.608511 0.0584111      0.5     O
O     0.608511 0.4415911      0.0     O
O     0.608511      0.5 -0.0584111     O
O     0.608511      0.5 0.0584111     O
O     0.608511 0.5584111      0.0     O
C     0.6170814      0.0 0.3319712     C
C     0.6170814      0.0 0.6680312     C
C     0.6170814 0.1680312      0.5     C
C     0.6170814 0.3319712      0.0     C
C     0.6170814      0.5 0.1680312     C
C     0.6170814      0.5 0.8319712     C
C     0.6170814 0.6680312      0.0     C
C     0.6170814 0.8319712      0.5     C
C     0.6279712      0.0 0.3720312     C
C     0.6279712      0.0 0.6279712     C
C     0.6279712 0.1279712      0.5     C
C     0.6279712 0.3720312      0.0     C
C     0.6279712      0.5 0.1279712     C
C     0.6279712      0.5 0.8720312     C
C     0.6279712 0.6279712      0.0     C
C     0.6279712 0.8720312      0.5     C
H      0.63824 -3.08149e-33 0.270007     H
H      0.63824      0.0 0.729993     H
H      0.63824 0.229993      0.5     H
H      0.63824 0.270007      0.0     H
H      0.63824      0.5 0.229993     H
H      0.63824      0.5 0.770007     H
H      0.63824 0.729993      0.0     H
H      0.63824 0.770007      0.5     H
C     0.6468613      0.0 0.3022816     C
C     0.6468613      0.0 0.6977216     C
C     0.6468613 0.1977216      0.5     C
C     0.6468613 0.3022816      0.0     C
C     0.6468613      0.5 0.1977216     C
C     0.6468613      0.5 0.8022816     C
C     0.6468613 0.6977216      0.0     C
C     0.6468613 0.8022816      0.5     C
C     0.6680312      0.0 0.3829214     C
C     0.6680312      0.0 0.6170814     C
C     0.6680312 0.1170814      0.5     C
C     0.6680312 0.3829214      0.0     C
C     0.6680312      0.5 0.1170814     C
C     0.6680312      0.5 0.8829214     C
C     0.6680312 0.6170814      0.0     C
C     0.6680312 0.8829214      0.5     C
H     0.676642 -6.16298e-33 0.584805     H
H     0.676642 -3.08149e-33 0.415195     H
H     0.676642 0.0848045      0.5     H
H     0.676642 0.415195      0.0     H
H     0.676642      0.5 0.0848045     H
H     0.676642      0.5 0.915195     H
H     0.676642 0.584805      0.0     H
H     0.676642 0.915195      0.5     H
H     0.680213 -0.0614369  0.76239     H
H     0.680213 0.438563  0.26239     H
H     0.680213  0.73761 0.438563     H
C     0.6869714      0.0 0.3130314     C
C     0.6869714      0.0 0.6869714     C
C     0.6869714 0.1869714      0.5     C
C     0.6869714 0.3130314      0.0     C
C     0.6869714      0.5 0.1869714     C
C     0.6869714      0.5 0.8130314     C
C     0.6869714 0.6869714      0.0     C
C     0.6869714 0.8130314      0.5     C
H     0.689696 -0.0783074 0.711389     H
H     0.689696 0.421693 0.211389     H
H     0.689696 0.788611 0.421693     H
C     0.6977216      0.0 0.3531413     C
C     0.6977216      0.0 0.6468613     C
C     0.6977216 0.1468613      0.5     C
C     0.6977216 0.3531413      0.0     C
C     0.6977216      0.5 0.1468613     C
C     0.6977216      0.5 0.8531413     C
C     0.6977216 0.6468613      0.0     C
C     0.6977216 0.8531413      0.5     C
C      0.70387 -0.07117  0.74081     C
C      0.70387  0.42897  0.24081     C
C      0.70387  0.75921  0.42897     C
H     0.711389 -0.0783074 0.310304     H
H     0.711389 0.189696 0.578307     H
H     0.711389 0.310304 0.0783074     H
H     0.711389 0.578307 0.810304     H
H     0.711389 0.689696 0.0783074     H
H     0.719312 -0.0982072 0.752651     H
H     0.719312 0.401793 0.252651     H
H     0.719312 0.747349 0.401793     H
C     0.7203611      0.0 0.2796411     C
C     0.7203611      0.0 0.7203611     C
C     0.7203611 0.2203611      0.5     C
C     0.7203611 0.2796411      0.0     C
C     0.7203611      0.5 0.2203611     C
C     0.7203611      0.5 0.7796411     C
C     0.7203611 0.7203611      0.0     C
C     0.7203611 0.7796411      0.5     C
H     0.723279 0.0652123 0.276721     H
H     0.723279 0.0652123 0.723279     H
H     0.723279 0.223279 0.434788     H
H     0.723279 0.276721 -0.0652123     H
H     0.723279 0.434788 0.776721     H
H     0.723279 0.565212 0.223279     H
H     0.723279 0.723279 -0.0652123     H
H     0.723279 0.776721 0.565212     H
H     0.729993 -3.08149e-33  0.36176     H
H     0.729993 6.16298e-33  0.63824     H
H     0.729993  0.13824      0.5     H
H     0.729993  0.36176      0.0     H
H     0.729993      0.5  0.13824     H
H     0.729993      0.5  0.86176     H
H     0.729993  0.63824      0.0     H
H     0.729993  0.86176      0.5     H
C     0.735117 -0.0363012 0.264897     C
C     0.735117 -0.0363012 0.735117     C
C     0.735117 0.0363012 0.264897     C
C     0.735117 0.0363012 0.735117     C
C     0.735117 0.235117 0.4637012     C
C     0.735117 0.235117 0.5363012     C
C     0.735117 0.264897 -0.0363012     C
C     0.735117 0.264897 0.0363012     C
C     0.735117 0.4637012 0.235117     C
C     0.735117 0.4637012 0.764897     C
C     0.735117 0.5363012 0.235117     C
C     0.735117 0.5363012 0.764897     C
C     0.735117 0.735117 -0.0363012     C
C     0.735117 0.735117 0.0363012     C
C     0.735117 0.764897 0.4637012     C
C     0.735117 0.764897 0.5363012     C
H      0.73761 0.0614369 0.180213     H
H      0.73761 0.180213 -0.0614369     H
H      0.73761 0.319787 0.438563     H
H      0.73761 0.438563 0.680213     H
H      0.73761 0.819787 -0.0614369     H
C      0.74081 -0.07117  0.29627     C
C      0.74081  0.20387  0.57117     C
C      0.74081  0.29627  0.07117     C
C      0.74081  0.57117  0.79627     C
C      0.74081  0.70387  0.07117     C
H     0.747349 0.0982072 0.219312     H
H     0.747349 0.219312 -0.0982072     H
H     0.747349 0.280688 0.401793     H
H     0.747349 0.401793 0.719312     H
H     0.747349 0.780688 -0.0982072     H
H     0.752651 -0.0982072 0.280688     H
H     0.752651 0.219312 0.598207     H
H     0.752651 0.280688 0.0982072     H
H     0.752651 0.598207 0.780688     H
H     0.752651 0.719312 0.0982072     H
C      0.75921  0.07117  0.20387     C
C      0.75921  0.20387 -0.07117     C
C      0.75921  0.29627  0.42897     C
C      0.75921  0.42897  0.70387     C
C      0.75921  0.79627 -0.07117     C
H      0.76239 -0.0614369 0.319787     H
H      0.76239 0.180213 0.561437     H
H      0.76239 0.319787 0.0614369     H
H      0.76239 0.561437 0.819787     H
H      0.76239 0.680213 0.0614369     H
C     0.764897 -0.0363012 0.235117     C
C     0.764897 -0.0363012 0.764897     C
C     0.764897 0.0363012 0.235117     C
C     0.764897 0.0363012 0.764897     C
C     0.764897 0.235117 -0.0363012     C
C     0.764897 0.235117 0.0363012     C
C     0.764897 0.264897 0.4637012     C
C     0.764897 0.264897 0.5363012     C
C     0.764897 0.4637012 0.264897     C
C     0.764897 0.4637012 0.735117     C
C     0.764897 0.5363012 0.264897     C
C     0.764897 0.5363012 0.735117     C
C     0.764897 0.735117 0.4637012     C
C     0.764897 0.735117 0.5363012     C
C     0.764897 0.764897 -0.0363012     C
C     0.764897 0.764897 0.0363012     C
H     0.770007 -1.54074e-33  0.13824     H
H     0.770007      0.0  0.86176     H
H     0.770007  0.13824      0.0     H
H     0.770007  0.36176      0.5     H
H     0.770007      0.5  0.36176     H
H     0.770007      0.5  0.63824     H
H     0.770007  0.63824      0.5     H
H     0.770007  0.86176      0.0     H
H     0.776721 -0.0652123 0.223279     H
H     0.776721 -0.0652123 0.776721     H
H     0.776721 0.223279 0.0652123     H
H     0.776721 0.276721 0.565212     H
H     0.776721 0.434788 0.276721     H
H     0.776721 0.565212 0.723279     H
H     0.776721 0.723279 0.434788     H
H     0.776721 0.776721 0.0652123     H
C     0.7796411      0.0 0.2203611     C
C     0.7796411      0.0 0.7796411     C
C     0.7796411 0.2203611      0.0     C
C     0.7796411 0.2796411      0.5     C
C     0.7796411      0.5 0.2796411     C
C     0.7796411      0.5 0.7203611     C
C     0.7796411 0.7203611      0.5     C
C     0.7796411 0.7796411      0.0     C
H     0.780688 0.0982072 0.747349     H
H     0.780688 0.598207 0.247349     H
H     0.780688 0.752651 0.598207     H
H     0.788611 0.0783074 0.189696     H
H     0.788611 0.189696 -0.0783074     H
H     0.788611 0.310304 0.421693     H
H     0.788611 0.421693 0.689696     H
H     0.788611 0.810304 -0.0783074     H
C      0.79627  0.07117  0.75921     C
C      0.79627  0.57117  0.25921     C
C      0.79627  0.74081  0.57117     C
C     0.8022816      0.0 0.1468613     C
C     0.8022816      0.0 0.8531413     C
C     0.8022816 0.1468613      0.0     C
C     0.8022816 0.3531413      0.5     C
C     0.8022816      0.5 0.3531413     C
C     0.8022816      0.5 0.6468613     C
C     0.8022816 0.6468613      0.5     C
C     0.8022816 0.8531413      0.0     C
H     0.810304 0.0783074 0.788611     H
H     0.810304 0.578307 0.288611     H
H     0.810304 0.711389 0.578307     H
C     0.8130314      0.0 0.1869714     C
C     0.8130314      0.0 0.8130314     C
C     0.8130314 0.1869714      0.0     C
C     0.8130314 0.3130314      0.5     C
C     0.8130314      0.5 0.3130314     C
C     0.8130314      0.5 0.6869714     C
C     0.8130314 0.6869714      0.5     C
C     0.8130314 0.8130314      0.0     C
H     0.819787 0.0614369  0.73761     H
H     0.819787 0.561437  0.23761     H
H     0.819787  0.76239 0.561437     H
H     0.823358 7.70372e-34 0.0848045     H
H     0.823358 2.46519e-32 0.915195     H
H     0.823358 0.0848045      0.0     H
H     0.823358 0.415195      0.5     H
H     0.823358      0.5 0.415195     H
H     0.823358      0.5 0.584805     H
H     0.823358 0.584805      0.5     H
H     0.823358 0.915195      0.0     H
C     0.8319712      0.0 0.1170814     C
C     0.8319712      0.0 0.8829214     C
C     0.8319712 0.1170814      0.0     C
C     0.8319712 0.3829214      0.5     C
C     0.8319712      0.5 0.3829214     C
C     0.8319712      0.5 0.6170814     C
C     0.8319712 0.6170814      0.5     C
C     0.8319712 0.8829214      0.0     C
C     0.8531413      0.0 0.1977216     C
C     0.8531413      0.0 0.8022816     C
C     0.8531413 0.1977216      0.0     C
C     0.8531413 0.3022816      0.5     C
C     0.8531413      0.5 0.3022816     C
C     0.8531413      0.5 0.6977216     C
C     0.8531413 0.6977216      0.5     C
C     0.8531413 0.8022816      0.0     C
H      0.86176      0.0 0.229993     H
H      0.86176 1.2326e-32 0.770007     H
H      0.86176 0.229993      0.0     H
H      0.86176 0.270007      0.5     H
H      0.86176      0.5 0.270007     H
H      0.86176      0.5 0.729993     H
H      0.86176 0.729993      0.5     H
H      0.86176 0.770007      0.0     H
C     0.8720312      0.0 0.1279712     C
C     0.8720312      0.0 0.8720312     C
C     0.8720312 0.1279712      0.0     C
C     0.8720312 0.3720312      0.5     C
C     0.8720312      0.5 0.3720312     C
C     0.8720312      0.5 0.6279712     C
C     0.8720312 0.6279712      0.5     C
C     0.8720312 0.8720312      0.0     C
C     0.8829214      0.0 0.1680312     C
C     0.8829214      0.0 0.8319712     C
C     0.8829214 0.1680312      0.0     C
C     0.8829214 0.3319712      0.5     C
C     0.8829214      0.5 0.3319712     C
C     0.8829214      0.5 0.6680312     C
C     0.8829214 0.6680312      0.5     C
C     0.8829214 0.8319712      0.0     C
O     0.891491 -0.0584111      0.0     O
O     0.891491      0.0 -0.0584111     O
O     0.891491      0.0 0.0584111     O
O     0.891491 0.0584111      0.0     O
O     0.891491 0.4415911      0.5     O
O     0.891491      0.5 0.4415911     O
O     0.891491      0.5 0.5584111     O
O     0.891491 0.5584111      0.5     O
C     0.9046416      0.0 0.0953616     C
C     0.9046416      0.0 0.9046416     C
C     0.9046416 0.0953616      0.0     C
C     0.9046416 0.4046416      0.5     C
C     0.9046416      0.5 0.4046416     C
C     0.9046416      0.5 0.5953616     C
C     0.9046416 0.5953616      0.5     C
C     0.9046416 0.9046416      0.0     C
H     0.915195 3.08149e-33 0.176642     H
H     0.915195 1.2326e-32 0.823358     H
H     0.915195 0.176642      0.0     H
H     0.915195 0.323358      0.5     H
H     0.915195      0.5 0.323358     H
H     0.915195      0.5 0.676642     H
H     0.915195 0.676642      0.5     H
H     0.915195 0.823358      0.0     H
Zr    0.92478417      0.0      0.0    Zr
Zr    0.92478417      0.0      1.0    Zr
Zr    0.92478417      0.5      0.5    Zr
Zr    0.92478417      1.0      0.0    Zr
Zr         1.0 -0.07521617      0.0    Zr
Zr         1.0      0.0 -0.07521617    Zr
Zr         1.0      0.0 0.07521617    Zr
Zr         1.0      0.0 0.92478417    Zr
Zr         1.0 0.07521617      0.0    Zr
Zr         1.0 0.42478417      0.5    Zr
Zr         1.0      0.5 0.42478417    Zr
Zr         1.0      0.5 0.57521617    Zr
Zr         1.0 0.57521617      0.5    Zr
Zr         1.0 0.92478417      0.0    Zr
