data_I
_chemical_name_common  '/home/zhangsd/repos/MofS-CGCNN/ML/data/WS24/clean_cifs/PETWOC'
_cell_length_a 15.21350
_cell_length_b 15.21350
_cell_length_c 15.21350
_cell_angle_alpha 60.00000
_cell_angle_beta  60.00000
_cell_angle_gamma 60.00000
_space_group_name_H-M_alt      'P 1'


loop_
_space_group_symop_operation_xyz
  'x, y, z' 

loop_
_atom_site_label
_atom_site_fract_x
_atom_site_fract_y
_atom_site_fract_z
_atom_site_type_symbol
C          0.0      0.0   0.3098     C
C          0.0      0.0   0.4084     C
C          0.0      0.0   0.5916     C
C          0.0      0.0   0.6902     C
C          0.0   0.3098      0.0     C
C          0.0   0.3098   0.6902     C
C          0.0   0.4084      0.0     C
C          0.0   0.4084   0.5916     C
C          0.0   0.5916      0.0     C
C          0.0   0.5916   0.4084     C
C          0.0   0.6902      0.0     C
C          0.0   0.6902   0.3098     C
O       0.0601   0.0601   0.0601     O
O       0.0601   0.0601   0.8197     O
O       0.0601   0.8197   0.0601     O
O       0.0747   0.2729   0.7271     O
O       0.0747   0.2729   0.9253     O
O       0.0747   0.7271   0.2729     O
O       0.0747   0.7271   0.9253     O
O       0.0747   0.9253   0.2729     O
O       0.0747   0.9253   0.7271     O
C       0.0813   0.4537   0.5463     C
C       0.0813   0.4537   0.9187     C
C       0.0813   0.5463   0.4537     C
C       0.0813   0.5463   0.9187     C
C       0.0813   0.9187   0.4537     C
C       0.0813   0.9187   0.5463     C
U      0.12601  0.12601  0.87399     U
U      0.12601  0.87399  0.12601     U
U      0.12601  0.87399  0.87399     U
H      0.13568   0.4217   0.5783     H
H      0.13568   0.4217  0.86432     H
H      0.13568   0.5783   0.4217     H
H      0.13568   0.5783  0.86432     H
H      0.13568  0.86432   0.4217     H
H      0.13568  0.86432   0.5783     H
O       0.1803   0.9399   0.9399     O
O       0.2729   0.0747   0.7271     O
O       0.2729   0.0747   0.9253     O
O       0.2729   0.7271   0.0747     O
O       0.2729   0.7271   0.9253     O
O       0.2729   0.9253   0.0747     O
O       0.2729   0.9253   0.7271     O
C       0.3098      0.0      0.0     C
C       0.3098      0.0   0.6902     C
C       0.3098   0.6902     -0.0     C
C       0.4084      0.0      0.0     C
C       0.4084   0.5916      0.0     C
C       0.4084      1.0   0.5916     C
H       0.4217  0.13568   0.5783     H
H       0.4217  0.13568  0.86432     H
H       0.4217   0.5783  0.13568     H
H       0.4217   0.5783  0.86432     H
H       0.4217  0.86432  0.13568     H
H       0.4217  0.86432   0.5783     H
C       0.4537   0.0813   0.5463     C
C       0.4537   0.0813   0.9187     C
C       0.4537   0.5463   0.0813     C
C       0.4537   0.5463   0.9187     C
C       0.4537   0.9187   0.0813     C
C       0.4537   0.9187   0.5463     C
C       0.5463   0.0813   0.4537     C
C       0.5463   0.0813   0.9187     C
C       0.5463   0.4537   0.0813     C
C       0.5463   0.4537   0.9187     C
C       0.5463   0.9187   0.0813     C
C       0.5463   0.9187   0.4537     C
H       0.5783  0.13568   0.4217     H
H       0.5783  0.13568  0.86432     H
H       0.5783   0.4217  0.13568     H
H       0.5783   0.4217  0.86432     H
H       0.5783  0.86432  0.13568     H
H       0.5783  0.86432   0.4217     H
C       0.5916      0.0      0.0     C
C       0.5916      0.0   0.4084     C
C       0.5916   0.4084      0.0     C
C       0.6902      0.0      0.0     C
C       0.6902      0.0   0.3098     C
C       0.6902   0.3098      0.0     C
O       0.7271   0.0747   0.2729     O
O       0.7271   0.0747   0.9253     O
O       0.7271   0.2729   0.0747     O
O       0.7271   0.2729   0.9253     O
O       0.7271   0.9253   0.0747     O
O       0.7271   0.9253   0.2729     O
O       0.8197   0.0601   0.0601     O
H      0.86432  0.13568   0.4217     H
H      0.86432  0.13568   0.5783     H
H      0.86432   0.4217  0.13568     H
H      0.86432   0.4217   0.5783     H
H      0.86432   0.5783  0.13568     H
H      0.86432   0.5783   0.4217     H
U      0.87399  0.12601  0.12601     U
U      0.87399  0.12601  0.87399     U
U      0.87399  0.87399  0.12601     U
C       0.9187   0.0813   0.4537     C
C       0.9187   0.0813   0.5463     C
C       0.9187   0.4537   0.0813     C
C       0.9187   0.4537   0.5463     C
C       0.9187   0.5463   0.0813     C
C       0.9187   0.5463   0.4537     C
O       0.9253   0.0747   0.2729     O
O       0.9253   0.0747   0.7271     O
O       0.9253   0.2729   0.0747     O
O       0.9253   0.2729   0.7271     O
O       0.9253   0.7271   0.0747     O
O       0.9253   0.7271   0.2729     O
O       0.9399   0.1803   0.9399     O
O       0.9399   0.9399   0.1803     O
O       0.9399   0.9399   0.9399     O
