data_I
_chemical_name_common  '/home/zhangsd/repos/MofS-CGCNN/ML/data/WS24/clean_cifs/PIGXAF'
_cell_length_a 16.03710
_cell_length_b 16.03710
_cell_length_c 16.03710
_cell_angle_alpha 109.47100
_cell_angle_beta  109.47100
_cell_angle_gamma 109.47100
_space_group_name_H-M_alt      'P 1'


loop_
_space_group_symop_operation_xyz
  'x, y, z' 

loop_
_atom_site_label
_atom_site_fract_x
_atom_site_fract_y
_atom_site_fract_z
_atom_site_type_symbol
O       0.0007    0.377   0.6855     O
C       0.0137   0.2608   0.0575     C
O        0.016   0.6971   0.9201     O
O       0.0289    0.748   0.0745     O
O       0.0415   0.8494   0.7745     O
C       0.0438   0.9863   0.7471     C
O       0.0456   0.9711   0.2191     O
C       0.0572   0.3627   0.1519     C
C       0.0575   0.7608   0.0137     C
O       0.0745    0.248   0.0289     O
O       0.0749   0.7255    0.267     O
O       0.0799    0.277   0.5959     O
Cd      0.0824     0.75   0.8324    Cd
C       0.0947   0.9428   0.8055     C
O       0.0959   0.0799    0.777     O
O        0.123   0.6237   0.8085     O
O       0.1237    0.623   0.3085     O
Cd       0.125    0.875     0.25    Cd
C       0.1373   0.6945   0.2892     C
O       0.1506   0.4251   0.1921     O
C       0.1519   0.8627   0.0572     C
Cd      0.1676   0.4176     0.75    Cd
O       0.1735   0.9544   0.4255     O
O       0.1811    0.484   0.9041     O
O       0.1848   0.8763   0.9993     O
O       0.1855   0.0007    0.877     O
O       0.1915   0.3152   0.8145     O
O       0.1921   0.9251   0.1506     O
C       0.1945   0.6373   0.7892     C
O       0.1971    0.516   0.4201     O
C       0.2033   0.4425   0.9562     C
C       0.2108   0.3481   0.9053     C
O       0.2191   0.4711   0.0456     O
O        0.223   0.8029   0.8189     O
O       0.2255   0.5749    0.767     O
O        0.233   0.3079   0.9585     O
C       0.2392   0.7529   0.2967     C
C       0.2471   0.0438   0.4863     C
O        0.248   0.5289   0.5745     O
Cd        0.25   0.1676   0.9176    Cd
Cd        0.25    0.375    0.125    Cd
Cd        0.25   0.5824   0.3324    Cd
O        0.252   0.8265   0.2809     O
C       0.2529   0.7392   0.7967     C
C       0.2608   0.5575   0.5137     C
O        0.267   0.2255   0.0749     O
O       0.2745   0.0415   0.3494     O
O        0.277   0.0959   0.5799     O
O       0.2809   0.3265    0.252     O
C       0.2892   0.1945   0.1373     C
C       0.2967   0.2529   0.2392     C
O       0.3029    0.723   0.3189     O
C       0.3055   0.0947   0.4428     C
O       0.3079   0.4585    0.733     O
O       0.3085    0.123   0.1237     O
O       0.3145   0.1915   0.8152     O
O       0.3152   0.3145   0.6915     O
O       0.3189    0.223   0.3029     O
O       0.3265    0.752   0.7809     O
Cd      0.3324   0.0824     0.25    Cd
C       0.3481   0.4053   0.7108     C
O       0.3494   0.5415   0.2745     O
C       0.3627   0.6519   0.5572     C
Cd       0.375    0.625     0.75    Cd
O       0.3763   0.6848   0.4993     O
O        0.377   0.1855   0.5007     O
O       0.4041   0.1811    0.984     O
C       0.4053   0.2108   0.8481     C
Cd      0.4176     0.25   0.6676    Cd
O       0.4201    0.016   0.1971     O
O       0.4251   0.6921   0.6506     O
O       0.4255   0.4544   0.1735     O
C       0.4425   0.4562   0.7033     C
C       0.4428   0.5947   0.3055     C
O       0.4544   0.6735   0.9255     O
C       0.4562   0.2033   0.9425     C
O       0.4585    0.233   0.8079     O
O       0.4711   0.5456   0.7191     O
O        0.484   0.4041   0.6811     O
C       0.4863   0.5438   0.2471     C
O       0.4993   0.1848   0.3763     O
O       0.5007   0.6855    0.377     O
C       0.5137   0.0575   0.2608     C
O        0.516   0.9201   0.6971     O
O       0.5289   0.0745    0.748     O
O       0.5415   0.7745   0.8494     O
C       0.5438   0.7471   0.9863     C
O       0.5456   0.2191   0.9711     O
C       0.5572   0.1519   0.3627     C
C       0.5575   0.0137   0.7608     C
O       0.5745   0.0289    0.248     O
O       0.5749    0.267   0.7255     O
O       0.5799   0.5959    0.277     O
Cd      0.5824   0.8324     0.75    Cd
C       0.5947   0.8055   0.9428     C
O       0.5959    0.777   0.0799     O
O        0.623   0.8085   0.6237     O
O       0.6237   0.3085    0.623     O
Cd       0.625     0.25    0.875    Cd
C       0.6373   0.2892   0.6945     C
O       0.6506   0.1921   0.4251     O
C       0.6519   0.0572   0.8627     C
Cd      0.6676     0.75   0.4176    Cd
O       0.6735   0.4255   0.9544     O
O       0.6811   0.9041    0.484     O
O       0.6848   0.9993   0.8763     O
O       0.6855    0.877   0.0007     O
O       0.6915   0.8145   0.3152     O
O       0.6921   0.1506   0.9251     O
C       0.6945   0.7892   0.6373     C
O       0.6971   0.4201    0.516     O
C       0.7033   0.9562   0.4425     C
C       0.7108   0.9053   0.3481     C
O       0.7191   0.0456   0.4711     O
O        0.723   0.8189   0.8029     O
O       0.7255    0.767   0.5749     O
O        0.733   0.9585   0.3079     O
C       0.7392   0.2967   0.7529     C
C       0.7471   0.4863   0.0438     C
O        0.748   0.5745   0.5289     O
Cd        0.75    0.125    0.375    Cd
Cd        0.75   0.3324   0.5824    Cd
Cd        0.75   0.9176   0.1676    Cd
O        0.752   0.2809   0.8265     O
C       0.7529   0.7967   0.7392     C
C       0.7608   0.5137   0.5575     C
O        0.767   0.0749   0.2255     O
O       0.7745   0.3494   0.0415     O
O        0.777   0.5799   0.0959     O
O       0.7809    0.252   0.3265     O
C       0.7892   0.1373   0.1945     C
C       0.7967   0.2392   0.2529     C
O       0.8029   0.3189    0.723     O
C       0.8055   0.4428   0.0947     C
O       0.8079    0.733   0.4585     O
O       0.8085   0.1237    0.123     O
O       0.8145   0.8152   0.1915     O
O       0.8152   0.6915   0.3145     O
O       0.8189   0.3029    0.223     O
O       0.8265   0.7809    0.752     O
Cd      0.8324     0.25   0.0824    Cd
C       0.8481   0.7108   0.4053     C
O       0.8494   0.2745   0.5415     O
C       0.8627   0.5572   0.6519     C
Cd       0.875     0.75    0.625    Cd
O       0.8763   0.4993   0.6848     O
O        0.877   0.5007   0.1855     O
O       0.9041    0.984   0.1811     O
C       0.9053   0.8481   0.2108     C
Cd      0.9176   0.6676     0.25    Cd
O       0.9201   0.1971    0.016     O
O       0.9251   0.6506   0.6921     O
O       0.9255   0.1735   0.4544     O
C       0.9425   0.7033   0.4562     C
C       0.9428   0.3055   0.5947     C
O       0.9544   0.9255   0.6735     O
C       0.9562   0.9425   0.2033     C
O       0.9585   0.8079    0.233     O
O       0.9711   0.7191   0.5456     O
O        0.984   0.6811   0.4041     O
C       0.9863   0.2471   0.5438     C
O       0.9993   0.3763   0.1848     O
