data_I
_chemical_name_common  '/home/zhangsd/repos/MofS-CGCNN/ML/data/WS24/clean_cifs/POHWIU'
_cell_length_a 21.87290
_cell_length_b 21.87290
_cell_length_c 28.68040
_cell_angle_alpha 90.00000
_cell_angle_beta  90.00000
_cell_angle_gamma 90.00000
_space_group_name_H-M_alt      'P 1'


loop_
_space_group_symop_operation_xyz
  'x, y, z' 

loop_
_atom_site_label
_atom_site_fract_x
_atom_site_fract_y
_atom_site_fract_z
_atom_site_type_symbol
Co         0.0      0.0     0.25    Co
Co         0.0      0.0     0.75    Co
N          0.0   0.0904   0.2513     N
N          0.0   0.0904   0.7487     N
C          0.0      0.5      0.0     C
N          0.0   0.9096   0.2513     N
N          0.0   0.9096   0.7487     N
C       0.0299   0.1897   0.2611     C
C       0.0299   0.1897   0.7389     C
C       0.0299   0.8103   0.2611     C
C       0.0299   0.8103   0.7389     C
O       0.0481      0.5      0.0     O
C       0.0493   0.1276   0.2536     C
C       0.0493   0.1276   0.7464     C
C       0.0493   0.8724   0.2536     C
C       0.0493   0.8724   0.7464     C
H       0.0557   0.2242   0.2652     H
H       0.0557   0.2242   0.7348     H
H       0.0557   0.7758   0.2652     H
H       0.0557   0.7758   0.7348     H
N       0.0904      0.0   0.2487     N
N       0.0904      0.0   0.7513     N
C       0.1089   0.1089     0.25     C
C       0.1089   0.1089     0.75     C
C       0.1089   0.8911     0.25     C
C       0.1089   0.8911     0.75     C
H       0.1117   0.3005   0.1716     H
H       0.1117   0.3005   0.8284     H
H       0.1117   0.6995   0.1716     H
H       0.1117   0.6995   0.8284     H
H       0.1122   0.3664   0.1071     H
H       0.1122   0.3664   0.8929     H
H       0.1122   0.6336   0.1071     H
H       0.1122   0.6336   0.8929     H
C       0.1276   0.0493   0.2464     C
C       0.1276   0.0493   0.7536     C
C       0.1276   0.9507   0.2464     C
C       0.1276   0.9507   0.7536     C
H       0.1341   0.1969   0.1878     H
H       0.1341   0.1969   0.8122     H
H       0.1341   0.8031   0.1878     H
H       0.1341   0.8031   0.8122     H
Co     0.13862      0.5      0.0    Co
C       0.1493   0.3131   0.1579     C
C       0.1493   0.3131   0.8421     C
C       0.1493   0.6869   0.1579     C
C       0.1493   0.6869   0.8421     C
C       0.1496   0.3535   0.1207     C
C       0.1496   0.3535   0.8793     C
C       0.1496   0.6465   0.1207     C
C       0.1496   0.6465   0.8793     C
O       0.1549   0.4359    0.049     O
O       0.1549   0.4359    0.951     O
O       0.1549   0.5641    0.049     O
O       0.1549   0.5641    0.951     O
C       0.1584   0.1584     0.25     C
C       0.1584   0.1584     0.75     C
C       0.1584   0.8416     0.25     C
C       0.1584   0.8416     0.75     C
C       0.1618      0.2   0.2132     C
C       0.1618      0.2   0.7868     C
C       0.1618      0.8   0.2132     C
C       0.1618      0.8   0.7868     C
C       0.1897   0.0299   0.2389     C
C       0.1897   0.0299   0.7611     C
C       0.1897   0.9701   0.2389     C
C       0.1897   0.9701   0.7611     C
H       0.1969   0.1341   0.3122     H
H       0.1969   0.1341   0.6878     H
H       0.1969   0.8659   0.3122     H
H       0.1969   0.8659   0.6878     H
C          0.2   0.1618   0.2868     C
C          0.2   0.1618   0.7132     C
C          0.2   0.8382   0.2868     C
C          0.2   0.8382   0.7132     C
C       0.2045   0.3747   0.1038     C
C       0.2045   0.3747   0.8962     C
C       0.2045   0.6253   0.1038     C
C       0.2045   0.6253   0.8962     C
C       0.2052   0.2455   0.2137     C
C       0.2052   0.2455   0.7863     C
C       0.2052   0.7545   0.2137     C
C       0.2052   0.7545   0.7863     C
C       0.2062   0.2904   0.1754     C
C       0.2062   0.2904   0.8246     C
C       0.2062   0.7096   0.1754     C
C       0.2062   0.7096   0.8246     C
C       0.2063   0.4192   0.0634     C
C       0.2063   0.4192   0.9366     C
C       0.2063   0.5808   0.0634     C
C       0.2063   0.5808   0.9366     C
H       0.2242   0.0557   0.2348     H
H       0.2242   0.0557   0.7652     H
H       0.2242   0.9443   0.2348     H
H       0.2242   0.9443   0.7652     H
C       0.2455   0.2052   0.2863     C
C       0.2455   0.2052   0.7137     C
C       0.2455   0.7948   0.2863     C
C       0.2455   0.7948   0.7137     C
C       0.2479   0.2479     0.25     C
C       0.2479   0.2479     0.75     C
C       0.2479   0.7521     0.25     C
C       0.2479   0.7521     0.75     C
O       0.2581   0.4358   0.0489     O
O       0.2581   0.4358   0.9511     O
O       0.2581   0.5642   0.0489     O
O       0.2581   0.5642   0.9511     O
C       0.2615   0.3137   0.1574     C
C       0.2615   0.3137   0.8426     C
C       0.2615   0.6863   0.1574     C
C       0.2615   0.6863   0.8426     C
C       0.2623   0.3544   0.1222     C
C       0.2623   0.3544   0.8778     C
C       0.2623   0.6456   0.1222     C
C       0.2623   0.6456   0.8778     C
Co     0.27216      0.5      0.0    Co
H       0.2786   0.2786     0.25     H
H       0.2786   0.2786     0.75     H
H       0.2786   0.7214     0.25     H
H       0.2786   0.7214     0.75     H
C       0.2904   0.2062   0.3246     C
C       0.2904   0.2062   0.6754     C
C       0.2904   0.7938   0.3246     C
C       0.2904   0.7938   0.6754     C
H       0.2991   0.3004   0.1705     H
H       0.2991   0.3004   0.8295     H
H       0.2991   0.6996   0.1705     H
H       0.2991   0.6996   0.8295     H
H       0.2998   0.3693   0.1099     H
H       0.2998   0.3693   0.8901     H
H       0.2998   0.6307   0.1099     H
H       0.2998   0.6307   0.8901     H
H       0.3004   0.2991   0.3295     H
H       0.3004   0.2991   0.6705     H
H       0.3004   0.7009   0.3295     H
H       0.3004   0.7009   0.6705     H
H       0.3005   0.1117   0.3284     H
H       0.3005   0.1117   0.6716     H
H       0.3005   0.8883   0.3284     H
H       0.3005   0.8883   0.6716     H
C       0.3131   0.1493   0.3421     C
C       0.3131   0.1493   0.6579     C
C       0.3131   0.8507   0.3421     C
C       0.3131   0.8507   0.6579     C
C       0.3137   0.2615   0.3426     C
C       0.3137   0.2615   0.6574     C
C       0.3137   0.7385   0.3426     C
C       0.3137   0.7385   0.6574     C
C       0.3535   0.1496   0.3793     C
C       0.3535   0.1496   0.6207     C
C       0.3535   0.8504   0.3793     C
C       0.3535   0.8504   0.6207     C
C       0.3544   0.2623   0.3778     C
C       0.3544   0.2623   0.6222     C
C       0.3544   0.7377   0.3778     C
C       0.3544   0.7377   0.6222     C
H       0.3664   0.1122   0.3929     H
H       0.3664   0.1122   0.6071     H
H       0.3664   0.8878   0.3929     H
H       0.3664   0.8878   0.6071     H
H       0.3693   0.2998   0.3901     H
H       0.3693   0.2998   0.6099     H
H       0.3693   0.7002   0.3901     H
H       0.3693   0.7002   0.6099     H
C       0.3747   0.2045   0.3962     C
C       0.3747   0.2045   0.6038     C
C       0.3747   0.7955   0.3962     C
C       0.3747   0.7955   0.6038     C
C       0.4192   0.2063   0.4366     C
C       0.4192   0.2063   0.5634     C
C       0.4192   0.7937   0.4366     C
C       0.4192   0.7937   0.5634     C
O       0.4358   0.2581   0.4511     O
O       0.4358   0.2581   0.5489     O
O       0.4358   0.7419   0.4511     O
O       0.4358   0.7419   0.5489     O
O       0.4359   0.1549    0.451     O
O       0.4359   0.1549    0.549     O
O       0.4359   0.8451    0.451     O
O       0.4359   0.8451    0.549     O
C          0.5      0.0      0.5     C
O          0.5   0.0481      0.5     O
Co         0.5  0.13862      0.5    Co
Co         0.5  0.27216      0.5    Co
Co         0.5  0.72784      0.5    Co
Co         0.5  0.86138      0.5    Co
O          0.5   0.9519      0.5     O
O       0.5641   0.1549    0.451     O
O       0.5641   0.1549    0.549     O
O       0.5641   0.8451    0.451     O
O       0.5641   0.8451    0.549     O
O       0.5642   0.2581   0.4511     O
O       0.5642   0.2581   0.5489     O
O       0.5642   0.7419   0.4511     O
O       0.5642   0.7419   0.5489     O
C       0.5808   0.2063   0.4366     C
C       0.5808   0.2063   0.5634     C
C       0.5808   0.7937   0.4366     C
C       0.5808   0.7937   0.5634     C
C       0.6253   0.2045   0.3962     C
C       0.6253   0.2045   0.6038     C
C       0.6253   0.7955   0.3962     C
C       0.6253   0.7955   0.6038     C
H       0.6307   0.2998   0.3901     H
H       0.6307   0.2998   0.6099     H
H       0.6307   0.7002   0.3901     H
H       0.6307   0.7002   0.6099     H
H       0.6336   0.1122   0.3929     H
H       0.6336   0.1122   0.6071     H
H       0.6336   0.8878   0.3929     H
H       0.6336   0.8878   0.6071     H
C       0.6456   0.2623   0.3778     C
C       0.6456   0.2623   0.6222     C
C       0.6456   0.7377   0.3778     C
C       0.6456   0.7377   0.6222     C
C       0.6465   0.1496   0.3793     C
C       0.6465   0.1496   0.6207     C
C       0.6465   0.8504   0.3793     C
C       0.6465   0.8504   0.6207     C
C       0.6863   0.2615   0.3426     C
C       0.6863   0.2615   0.6574     C
C       0.6863   0.7385   0.3426     C
C       0.6863   0.7385   0.6574     C
C       0.6869   0.1493   0.3421     C
C       0.6869   0.1493   0.6579     C
C       0.6869   0.8507   0.3421     C
C       0.6869   0.8507   0.6579     C
H       0.6995   0.1117   0.3284     H
H       0.6995   0.1117   0.6716     H
H       0.6995   0.8883   0.3284     H
H       0.6995   0.8883   0.6716     H
H       0.6996   0.2991   0.3295     H
H       0.6996   0.2991   0.6705     H
H       0.6996   0.7009   0.3295     H
H       0.6996   0.7009   0.6705     H
H       0.7002   0.3693   0.1099     H
H       0.7002   0.3693   0.8901     H
H       0.7002   0.6307   0.1099     H
H       0.7002   0.6307   0.8901     H
H       0.7009   0.3004   0.1705     H
H       0.7009   0.3004   0.8295     H
H       0.7009   0.6996   0.1705     H
H       0.7009   0.6996   0.8295     H
C       0.7096   0.2062   0.3246     C
C       0.7096   0.2062   0.6754     C
C       0.7096   0.7938   0.3246     C
C       0.7096   0.7938   0.6754     C
H       0.7214   0.2786     0.25     H
H       0.7214   0.2786     0.75     H
H       0.7214   0.7214     0.25     H
H       0.7214   0.7214     0.75     H
Co     0.72784      0.5      0.0    Co
C       0.7377   0.3544   0.1222     C
C       0.7377   0.3544   0.8778     C
C       0.7377   0.6456   0.1222     C
C       0.7377   0.6456   0.8778     C
C       0.7385   0.3137   0.1574     C
C       0.7385   0.3137   0.8426     C
C       0.7385   0.6863   0.1574     C
C       0.7385   0.6863   0.8426     C
O       0.7419   0.4358   0.0489     O
O       0.7419   0.4358   0.9511     O
O       0.7419   0.5642   0.0489     O
O       0.7419   0.5642   0.9511     O
C       0.7521   0.2479     0.25     C
C       0.7521   0.2479     0.75     C
C       0.7521   0.7521     0.25     C
C       0.7521   0.7521     0.75     C
C       0.7545   0.2052   0.2863     C
C       0.7545   0.2052   0.7137     C
C       0.7545   0.7948   0.2863     C
C       0.7545   0.7948   0.7137     C
H       0.7758   0.0557   0.2348     H
H       0.7758   0.0557   0.7652     H
H       0.7758   0.9443   0.2348     H
H       0.7758   0.9443   0.7652     H
C       0.7937   0.4192   0.0634     C
C       0.7937   0.4192   0.9366     C
C       0.7937   0.5808   0.0634     C
C       0.7937   0.5808   0.9366     C
C       0.7938   0.2904   0.1754     C
C       0.7938   0.2904   0.8246     C
C       0.7938   0.7096   0.1754     C
C       0.7938   0.7096   0.8246     C
C       0.7948   0.2455   0.2137     C
C       0.7948   0.2455   0.7863     C
C       0.7948   0.7545   0.2137     C
C       0.7948   0.7545   0.7863     C
C       0.7955   0.3747   0.1038     C
C       0.7955   0.3747   0.8962     C
C       0.7955   0.6253   0.1038     C
C       0.7955   0.6253   0.8962     C
C          0.8   0.1618   0.2868     C
C          0.8   0.1618   0.7132     C
C          0.8   0.8382   0.2868     C
C          0.8   0.8382   0.7132     C
H       0.8031   0.1341   0.3122     H
H       0.8031   0.1341   0.6878     H
H       0.8031   0.8659   0.3122     H
H       0.8031   0.8659   0.6878     H
C       0.8103   0.0299   0.2389     C
C       0.8103   0.0299   0.7611     C
C       0.8103   0.9701   0.2389     C
C       0.8103   0.9701   0.7611     C
C       0.8382      0.2   0.2132     C
C       0.8382      0.2   0.7868     C
C       0.8382      0.8   0.2132     C
C       0.8382      0.8   0.7868     C
C       0.8416   0.1584     0.25     C
C       0.8416   0.1584     0.75     C
C       0.8416   0.8416     0.25     C
C       0.8416   0.8416     0.75     C
O       0.8451   0.4359    0.049     O
O       0.8451   0.4359    0.951     O
O       0.8451   0.5641    0.049     O
O       0.8451   0.5641    0.951     O
C       0.8504   0.3535   0.1207     C
C       0.8504   0.3535   0.8793     C
C       0.8504   0.6465   0.1207     C
C       0.8504   0.6465   0.8793     C
C       0.8507   0.3131   0.1579     C
C       0.8507   0.3131   0.8421     C
C       0.8507   0.6869   0.1579     C
C       0.8507   0.6869   0.8421     C
Co     0.86138      0.5      0.0    Co
H       0.8659   0.1969   0.1878     H
H       0.8659   0.1969   0.8122     H
H       0.8659   0.8031   0.1878     H
H       0.8659   0.8031   0.8122     H
C       0.8724   0.0493   0.2464     C
C       0.8724   0.0493   0.7536     C
C       0.8724   0.9507   0.2464     C
C       0.8724   0.9507   0.7536     C
H       0.8878   0.3664   0.1071     H
H       0.8878   0.3664   0.8929     H
H       0.8878   0.6336   0.1071     H
H       0.8878   0.6336   0.8929     H
H       0.8883   0.3005   0.1716     H
H       0.8883   0.3005   0.8284     H
H       0.8883   0.6995   0.1716     H
H       0.8883   0.6995   0.8284     H
C       0.8911   0.1089     0.25     C
C       0.8911   0.1089     0.75     C
C       0.8911   0.8911     0.25     C
C       0.8911   0.8911     0.75     C
N       0.9096      0.0   0.2487     N
N       0.9096      0.0   0.7513     N
H       0.9443   0.2242   0.2652     H
H       0.9443   0.2242   0.7348     H
H       0.9443   0.7758   0.2652     H
H       0.9443   0.7758   0.7348     H
C       0.9507   0.1276   0.2536     C
C       0.9507   0.1276   0.7464     C
C       0.9507   0.8724   0.2536     C
C       0.9507   0.8724   0.7464     C
O       0.9519      0.5      0.0     O
C       0.9701   0.1897   0.2611     C
C       0.9701   0.1897   0.7389     C
C       0.9701   0.8103   0.2611     C
C       0.9701   0.8103   0.7389     C
