data_I
_chemical_name_common  '/home/zhangsd/repos/MofS-CGCNN/ML/data/WS24/clean_cifs/PORLAL'
_cell_length_a  8.20960
_cell_length_b 14.99800
_cell_length_c 36.87270
_cell_angle_alpha 90.00000
_cell_angle_beta  90.88240
_cell_angle_gamma 90.00000
_space_group_name_H-M_alt      'P 1'


loop_
_space_group_symop_operation_xyz
  'x, y, z' 

loop_
_atom_site_label
_atom_site_fract_x
_atom_site_fract_y
_atom_site_fract_z
_atom_site_type_symbol
C      0.00538   0.9897  0.43128     C
C       0.0099   0.1037   0.7525     C
H        0.012    0.813   0.4297     H
C      0.02803   0.2982  0.91963     C
O      0.02931   0.0234  0.53511     O
C      0.02974    0.262  0.75934     C
C      0.03303   0.6468  0.97793     C
H       0.0347   0.0465   0.7606     H
C      0.03549   0.2061  0.92539     C
C      0.04004    0.166  0.59124     C
H       0.0453   0.9143   0.0936     H
C      0.04684   0.5779  0.95254     C
C       0.0477   0.8531   0.0975     C
C      0.05222   0.0734  0.59712     C
C       0.0616   0.6651   0.1087     C
C        0.062   0.7279   0.2723     C
O      0.06423   0.2391  0.45573     O
C      0.06533   0.4232  0.51523     C
H       0.0661   0.3117   0.7722     H
C       0.0669   0.1768   0.7717     C
H       0.0678   0.6038    0.112     H
C      0.07141   0.7664  0.52811     C
H       0.0842   0.6707   0.2807     H
C      0.08429   0.5452  0.47279     C
C       0.0847   0.8848    0.279     C
H        0.085   0.3359   0.9353     H
O       0.0863   0.0581   0.4228     O
H       0.0905   0.6273   0.5737     H
H       0.0929   0.2877   0.6129     H
O      0.09461   0.8292  0.50581     O
N        0.095   0.4732   0.0474     N
C      0.10423   0.2265  0.61613     C
H        0.109   0.3713   0.5251     H
O      0.11792   0.0879  0.96552     O
N      0.11801   0.3636  0.00731     N
C      0.12112   0.8005  0.29152     C
H       0.1232   0.9344   0.2916     H
C      0.12475   0.0394  0.62815     C
H       0.1253   0.9784   0.6328     H
C      0.13438   0.8159  0.12648     C
C       0.1353   0.1683   0.9559     C
H       0.1391    0.575   0.4545     H
C       0.1425   0.7239   0.1322     C
H       0.1428   0.7525   0.0023     H
C      0.15031   0.4693  0.48831     C
C      0.15492   0.7081  0.98492     C
H       0.1601   0.3307   0.9908     H
Gd     0.16545  0.09808  0.48678    Gd
C      0.16813    0.162  0.80453     C
C      0.18623   0.1911  0.64603     C
C      0.18688   0.6315  0.56088     C
C      0.18867   0.4351  0.02337     C
C      0.19024   0.5696  0.93234     C
C      0.19693   0.0993  0.65223     C
H       0.2023   0.5247   0.9152     H
C      0.20364   0.7006  0.53504     C
N      0.21181   0.0834  0.81701     N
H       0.2149   0.2856   0.8217     H
C      0.22005   0.7874  0.32485     C
N      0.22182   0.8534  0.15432     N
N      0.22797   0.2295  0.82547     N
N      0.23454    0.708  0.16274     N
H       0.2367   0.9096   0.1578     H
O      0.24148   0.2179  0.97208     O
O      0.25852   0.2179  0.52792     O
H       0.2633   0.9096   0.3422     H
N      0.26546    0.708  0.33726     N
N      0.27203   0.2295  0.67453     N
N      0.27818   0.8534  0.34568     N
C      0.27995   0.7874  0.17515     C
H       0.2851   0.2856   0.6783     H
N      0.28819   0.0834  0.68299     N
C      0.29636   0.7006  0.96496     C
H       0.2977   0.5247   0.5848     H
C      0.30307   0.0993  0.84777     C
C      0.30976   0.5696  0.56766     C
C      0.31133   0.4351  0.47663     C
C      0.31312   0.6315  0.93912     C
C      0.31377   0.1911  0.85397     C
C      0.33187    0.162  0.69547     C
Gd     0.33455  0.09808  0.01322    Gd
H       0.3399   0.3307   0.5092     H
C      0.34508   0.7081  0.51508     C
C      0.34969   0.4693  0.01169     C
H       0.3572   0.7525   0.4977     H
C       0.3575   0.7239   0.3678     C
H       0.3609    0.575   0.0455     H
C       0.3647   0.1683   0.5441     C
C      0.36562   0.8159  0.37352     C
H       0.3747   0.9784   0.8672     H
C      0.37525   0.0394  0.87185     C
H       0.3768   0.9344   0.2084     H
C      0.37888   0.8005  0.20848     C
N      0.38199   0.3636  0.49269     N
O      0.38208   0.0879  0.53448     O
H        0.391   0.3713   0.9749     H
C      0.39577   0.2265  0.88387     C
N        0.405   0.4732   0.4526     N
O      0.40539   0.8292  0.99419     O
H       0.4071   0.2877   0.8871     H
H       0.4095   0.6273   0.9263     H
O       0.4137   0.0581   0.0772     O
H        0.415   0.3359   0.5647     H
C       0.4153   0.8848    0.221     C
C      0.41571   0.5452  0.02721     C
H       0.4158   0.6707   0.2193     H
C      0.42859   0.7664  0.97189     C
H       0.4322   0.6038    0.388     H
C       0.4331   0.1768   0.7283     C
H       0.4339   0.3117   0.7278     H
C      0.43467   0.4232  0.98477     C
O      0.43577   0.2391  0.04427     O
C        0.438   0.7279   0.2277     C
C       0.4384   0.6651   0.3913     C
C      0.44778   0.0734  0.90288     C
C       0.4523   0.8531   0.4025     C
C      0.45316   0.5779  0.54746     C
H       0.4547   0.9143   0.4064     H
C      0.45996    0.166  0.90876     C
C      0.46451   0.2061  0.57461     C
H       0.4653   0.0465   0.7394     H
C      0.46697   0.6468  0.52207     C
C      0.47026    0.262  0.74066     C
O      0.47069   0.0234  0.96489     O
C      0.47197   0.2982  0.58037     C
H        0.488    0.813   0.0703     H
C       0.4901   0.1037   0.7475     C
C      0.49462   0.9897  0.06872     C
C      0.50538   0.0103  0.93128     C
C       0.5099   0.8963   0.2525     C
H        0.512    0.187   0.9297     H
C      0.52803   0.7018  0.41963     C
O      0.52931   0.9766  0.03511     O
C      0.52974    0.738  0.25934     C
C      0.53303   0.3532  0.47793     C
H       0.5347   0.9535   0.2606     H
C      0.53549   0.7939  0.42539     C
C      0.54004    0.834  0.09124     C
H       0.5453   0.0857   0.5936     H
C      0.54684   0.4221  0.45254     C
C       0.5477   0.1469   0.5975     C
C      0.55222   0.9266  0.09712     C
C       0.5616   0.3349   0.6087     C
C        0.562   0.2721   0.7723     C
O      0.56423   0.7609  0.95573     O
C      0.56533   0.5768  0.01523     C
H       0.5661   0.6883   0.2722     H
C       0.5669   0.8232   0.2717     C
H       0.5678   0.3962    0.612     H
C      0.57141   0.2336  0.02811     C
H       0.5842   0.3293   0.7807     H
C      0.58429   0.4548  0.97279     C
C       0.5847   0.1152    0.779     C
H        0.585   0.6641   0.4353     H
O       0.5863   0.9419   0.9228     O
H       0.5905   0.3727   0.0737     H
H       0.5929   0.7123   0.1129     H
O      0.59461   0.1708  0.00581     O
N        0.595   0.5268   0.5474     N
C      0.60423   0.7735  0.11613     C
H        0.609   0.6287   0.0251     H
O      0.61792   0.9121  0.46552     O
N      0.61801   0.6364  0.50731     N
C      0.62112   0.1995  0.79152     C
H       0.6232   0.0656   0.7916     H
C      0.62475   0.9606  0.12815     C
H       0.6253   0.0216   0.1328     H
C      0.63438   0.1841  0.62648     C
C       0.6353   0.8317   0.4559     C
H       0.6391    0.425   0.9545     H
C       0.6425   0.2761   0.6322     C
H       0.6428   0.2475   0.5023     H
C      0.65031   0.5307  0.98831     C
C      0.65492   0.2919  0.48492     C
H       0.6601   0.6693   0.4908     H
Gd     0.66545  0.90192  0.98678    Gd
C      0.66813    0.838  0.30453     C
C      0.68623   0.8089  0.14603     C
C      0.68688   0.3685  0.06088     C
C      0.68867   0.5649  0.52337     C
C      0.69024   0.4304  0.43234     C
C      0.69693   0.9007  0.15223     C
H       0.7023   0.4753   0.4152     H
C      0.70364   0.2994  0.03504     C
N      0.71181   0.9166  0.31701     N
H       0.7149   0.7144   0.3217     H
C      0.72005   0.2126  0.82485     C
N      0.72182   0.1466  0.65432     N
N      0.72797   0.7705  0.32547     N
N      0.73454    0.292  0.66274     N
H       0.7367   0.0904   0.6578     H
O      0.74148   0.7821  0.47208     O
O      0.75852   0.7821  0.02792     O
H       0.7633   0.0904   0.8422     H
N      0.76546    0.292  0.83726     N
N      0.77203   0.7705  0.17453     N
N      0.77818   0.1466  0.84568     N
C      0.77995   0.2126  0.67515     C
H       0.7851   0.7144   0.1783     H
N      0.78819   0.9166  0.18299     N
C      0.79636   0.2994  0.46496     C
H       0.7977   0.4753   0.0848     H
C      0.80307   0.9007  0.34777     C
C      0.80976   0.4304  0.06766     C
C      0.81133   0.5649  0.97663     C
C      0.81312   0.3685  0.43912     C
C      0.81377   0.8089  0.35397     C
C      0.83187    0.838  0.19547     C
Gd     0.83455  0.90192  0.51322    Gd
H       0.8399   0.6693   0.0092     H
C      0.84508   0.2919  0.01508     C
C      0.84969   0.5307  0.51169     C
H       0.8572   0.2475   0.9977     H
C       0.8575   0.2761   0.8678     C
H       0.8609    0.425   0.5455     H
C       0.8647   0.8317   0.0441     C
C      0.86562   0.1841  0.87352     C
H       0.8747   0.0216   0.3672     H
C      0.87525   0.9606  0.37185     C
H       0.8768   0.0656   0.7084     H
C      0.87888   0.1995  0.70848     C
N      0.88199   0.6364  0.99269     N
O      0.88208   0.9121  0.03448     O
H        0.891   0.6287   0.4749     H
C      0.89577   0.7735  0.38387     C
N        0.905   0.5268   0.9526     N
O      0.90539   0.1708  0.49419     O
H       0.9071   0.7123   0.3871     H
H       0.9095   0.3727   0.4263     H
O       0.9137   0.9419   0.5772     O
H        0.915   0.6641   0.0647     H
C       0.9153   0.1152    0.721     C
C      0.91571   0.4548  0.52721     C
H       0.9158   0.3293   0.7193     H
C      0.92859   0.2336  0.47189     C
H       0.9322   0.3962    0.888     H
C       0.9331   0.8232   0.2283     C
H       0.9339   0.6883   0.2278     H
C      0.93467   0.5768  0.48477     C
O      0.93577   0.7609  0.54427     O
C        0.938   0.2721   0.7277     C
C       0.9384   0.3349   0.8913     C
C      0.94778   0.9266  0.40288     C
C       0.9523   0.1469   0.9025     C
C      0.95316   0.4221  0.04746     C
H       0.9547   0.0857   0.9064     H
C      0.95996    0.834  0.40876     C
C      0.96451   0.7939  0.07461     C
H       0.9653   0.9535   0.2394     H
C      0.96697   0.3532  0.02207     C
C      0.97026    0.738  0.24066     C
O      0.97069   0.9766  0.46489     O
C      0.97197   0.7018  0.08037     C
H        0.988    0.187   0.5703     H
C       0.9901   0.8963   0.2475     C
C      0.99462   0.0103  0.56872     C
