data_I
_chemical_name_common  '/home/zhangsd/repos/MofS-CGCNN/ML/data/WS24/clean_cifs/POXHER'
_cell_length_a 33.88460
_cell_length_b 33.88460
_cell_length_c 33.88460
_cell_angle_alpha 90.00000
_cell_angle_beta  90.00000
_cell_angle_gamma 90.00000
_space_group_name_H-M_alt      'P 1'


loop_
_space_group_symop_operation_xyz
  'x, y, z' 

loop_
_atom_site_label
_atom_site_fract_x
_atom_site_fract_y
_atom_site_fract_z
_atom_site_type_symbol
O       0.0001  0.34314   0.3777     O
H       0.0001   0.5165   0.5727     H
H       0.0002   0.3081   0.0943     H
C       0.0009   0.6289   0.4927     C
H       0.0013   0.5132   0.3481     H
H       0.0024   0.4052   0.4641     H
H       0.0042    0.951   0.0377     H
H       0.0062   0.7048   0.1305     H
C       0.0073   0.9991   0.1289     C
H       0.0081   0.3531   0.1812     H
C       0.0082   0.6583   0.3087     C
C       0.0083   0.2608   0.3748     C
H       0.0095   0.6823   0.2315     H
H       0.0099   0.7662   0.4226     H
C       0.0108   0.2583   0.8752     C
H       0.0122   0.1366   0.1178     H
C       0.0131   0.5999   0.5626     C
H       0.0132   0.1519   0.9987     H
C        0.014   0.4173   0.2831     C
C       0.0147   0.9265   0.0282     C
C       0.0148   0.6452   0.3827     C
C        0.015   0.2206   0.3768     C
H       0.0157   0.0175   0.1091     H
H       0.0159   0.7707   0.1335     H
H       0.0162   0.2401   0.1726     H
H       0.0165   0.6701   0.3962     H
H       0.0165   0.9273   0.9999     H
O       0.0169   0.4443   0.0438     O
H       0.0169   0.8448   0.2808     H
H       0.0175   0.1091   0.0157     H
H       0.0179   0.6358   0.4711     H
O        0.018   0.3908   0.0841     O
C       0.0182   0.8508   0.3084     C
H       0.0185   0.4323   0.2595     H
C       0.0188   0.3236   0.8526     C
C       0.0196   0.7879   0.4072     C
Co     0.01996  0.89615  0.12447    Co
H       0.0207   0.2341   0.8835     H
C       0.0219   0.8266   0.6481     C
H        0.023   0.4319   0.3056     H
N      0.02435  0.43555  0.38386     N
H       0.0247   0.1694   0.9062     H
C       0.0252   0.6132   0.5261     C
H       0.0258   0.7789   0.3811     H
C       0.0261   0.4748   0.3868     C
C       0.0273   0.0915   0.9237     C
H        0.028   0.3927   0.2815     H
C       0.0282   0.0147   0.9265     C
C       0.0284   0.3279   0.3894     C
C       0.0284   0.9093   0.2128     C
H       0.0289   0.2242   0.1311     H
H       0.0289   0.9821   0.1358     H
C       0.0293   0.6496   0.3422     C
C       0.0294    0.765   0.6268     C
H       0.0305    0.626   0.3964     H
H       0.0308   0.0948   0.2331     H
H       0.0311   0.1576   0.4522     H
H       0.0315   0.6427    0.222     H
H       0.0319     0.83    0.322     H
H       0.0322   0.8507   0.6563     H
C       0.0331   0.6673    0.236     C
C       0.0342   0.1632   0.1945     C
C       0.0343    0.413   0.0645     C
H       0.0346   0.3448   0.8452     H
Co      0.0351   0.9649   0.4649    Co
C       0.0355   0.2884   0.8646     C
H       0.0359   0.9976   0.9052     H
H       0.0365   0.0902   0.4607     H
Co     0.03688  0.89085  0.40521    Co
C       0.0372   0.6593   0.2784     C
H       0.0377   0.0042    0.951     H
C       0.0379   0.2304   0.1572     C
C       0.0384   0.2855   0.3854     C
H       0.0385    0.585   0.6414     H
H       0.0393   0.9635   0.5902     H
C       0.0402   0.8897   0.3144     C
C       0.0418   0.1426   0.4319     C
O       0.0438   0.0169   0.4443     O
C       0.0449   0.1019   0.4374     C
N      0.04501  0.90397  0.17671     N
H       0.0452   0.7438   0.6195     H
H       0.0455   0.5457   0.6181     H
H       0.0457   0.8819   0.9545     H
C       0.0459   0.0562   0.9198     C
C       0.0476   0.5944   0.5826     C
H       0.0478   0.9689   0.6576     H
C        0.048   0.2009    0.388     C
N      0.04863  0.90377  0.34954     N
H        0.049   0.5377   0.4958     H
C       0.0491    0.798    0.638     C
O        0.051   0.3482   0.4061     O
C        0.052   0.1625   0.9092     C
C       0.0538   0.1621   0.3975     C
C       0.0538   0.5727    0.621     C
C       0.0544   0.1936   0.1764     C
C       0.0555   0.9132   0.2842     C
H       0.0556   0.6819    0.227     H
O       0.0557   0.9562   0.5169     O
C       0.0558   0.1189   0.9113     C
C       0.0562   0.9198   0.0459     C
C       0.0564   0.8044   0.4264     C
H       0.0581   0.2502   0.1557     H
C       0.0584   0.1008   0.2318     C
C       0.0587   0.9083   0.2418     C
N       0.0593   0.4232   0.3961     N
N      0.05933  0.90662  0.08322     N
C       0.0609   0.0793   0.4072     C
N      0.06152  0.84407   0.4302     N
H       0.0622    0.174   0.9329     H
C       0.0626   0.4869   0.4001     C
C       0.0626   0.9551   0.6019     C
C       0.0644   0.1397   0.2098     C
N      0.06445  0.61614  0.52435     N
C       0.0645   0.0343    0.413     C
H       0.0659   0.3988   0.3976     H
H       0.0666   0.1721   0.8869     H
H       0.0671   0.5622    0.326     H
O       0.0675   0.9325   0.4325     O
H       0.0677   0.7405   0.5185     H
N      0.06795  0.64812  0.33422     N
H       0.0681   0.6944    0.523     H
C       0.0681   0.9582   0.6426     C
H       0.0688   0.1031   0.2581     H
C       0.0695   0.1383   0.3684     C
N       0.0698  0.93848  0.34407     N
H        0.072     0.08   0.2181     H
H       0.0727   0.4999   0.4835     H
C       0.0727    0.879   0.9462     C
N      0.07329  0.65397  0.29501     N
C       0.0734   0.0969   0.3724     C
H       0.0734    0.872   0.9188     H
C       0.0735   0.5282   0.4853     C
C       0.0736   0.2688   0.3974     C
C       0.0736   0.9436   0.3044     C
H        0.076   0.8122   0.1829     H
C       0.0763   0.5273   0.4085     C
C       0.0766   0.2281   0.3981     C
N       0.0768   0.6039   0.5593     N
H       0.0774   0.9901   0.2662     H
H       0.0779     0.15    0.345     H
C       0.0779   0.2784   0.8606     C
H       0.0779   0.8166   0.1369     H
C       0.0793   0.4072   0.0609     C
H       0.0799   0.7335   0.3538     H
H         0.08   0.2181    0.072     H
C       0.0802   0.5459   0.4438     C
H       0.0806   0.7747   0.1562     H
H       0.0812   0.5734    0.628     H
H       0.0819   0.3521   0.0841     H
C       0.0826   0.4524   0.4056     C
C       0.0827   0.7169    0.514     C
N      0.08322  0.05933  0.90662     N
O       0.0841    0.018   0.3908     O
H       0.0841   0.0819   0.3521     H
N      0.08422  0.89812  0.18205     N
H        0.085   0.8586   0.9615     H
C       0.0868   0.7842   0.4445     C
C        0.087   0.9355   0.5343     C
C       0.0875    0.802   0.1592     C
C       0.0879   0.8038   0.6475     C
C       0.0887   0.5558   0.3811     C
N        0.089  0.09972   0.9017     N
H       0.0902   0.4607   0.0365     H
C       0.0907   0.7128   0.4716     C
C       0.0908    0.552   0.3375     C
C       0.0915   0.9237   0.0273     C
C       0.0917   0.7418   0.4413     C
C       0.0922   0.8996   0.2207     C
H       0.0924   0.7811   0.7022     H
C       0.0928   0.9391   0.5793     C
C       0.0928   0.9804   0.2879     C
O      0.09314   0.2501   0.8723     O
N      0.09338  0.58322  0.44067     N
H       0.0937   0.8993   0.7178     H
H       0.0938   0.5247   0.3306     H
O       0.0939    0.949   0.8482     O
N      0.09407  0.18848   0.1802     N
H       0.0943   0.0002   0.3081     H
C       0.0944   0.9174   0.9524     C
Co     0.09479  0.96312  0.39085    Co
H       0.0948   0.2331   0.0308     H
H       0.0948   0.2846   0.4048     H
H       0.0948   0.5359   0.5024     H
H        0.095      0.4   0.1721     H
H       0.0952   0.9052   0.7846     H
N      0.09603  0.67671  0.45499     N
N      0.09623  0.84954  0.45137     N
C       0.0969   0.3724   0.0734     C
H       0.0981   0.7632   0.2487     H
O       0.0982    0.301   0.8439     O
N       0.0983    0.589  0.40028     N
N      0.09954  0.15377  0.20137     N
N      0.09972   0.9017    0.089     N
C       0.0999   0.9374   0.9869     C
H          0.1   0.8279    0.595     H
C       0.1004   0.7207   0.4078     C
H       0.1007   0.2178   0.4063     H
C       0.1008   0.2318   0.0584     C
H       0.1012   0.6024   0.5659     H
N      0.10188  0.68205  0.41578     N
C       0.1019   0.4374   0.0449     C
C       0.1019   0.9234   0.7281     C
H       0.1021   0.3319   0.1659     H
H       0.1024   0.9341   0.8988     H
C       0.1025   0.9462   0.6621     C
C       0.1026   0.9264   0.7688     C
H       0.1031   0.2581   0.0688     H
H       0.1036   0.9695    0.126     H
H       0.1038   0.9835   0.1701     H
Co     0.10385  0.62447  0.48004    Co
N       0.1039   0.9407   0.9232     N
C       0.1048   0.7352   0.3673     C
H       0.1073   0.7185    0.528     H
C       0.1074   0.7918   0.6819     C
H       0.1086    0.165   0.7115     H
H       0.1091   0.0157   0.0175     H
Co     0.10915  0.90521  0.46312    Co
O       0.1092   0.9159    0.518     O
Co     0.10975  0.64025    0.375    Co
C       0.1103   0.8144   0.4598     C
C       0.1106   0.9716   0.8279     C
C       0.1117   0.8195   0.6184     C
C        0.112    0.952   0.7009     C
H       0.1131   0.5666   0.3279     H
C       0.1132   0.9739   0.9748     C
H       0.1134   0.7622   0.3678     H
H       0.1142   0.7321   0.2789     H
C       0.1146   0.9616   0.7855     C
N      0.11614  0.97565  0.93555     N
H       0.1165   0.5207   0.2659     H
C       0.1173   0.9852   0.1452     C
H       0.1178   0.0122   0.1366     H
H       0.1181   0.4545   0.4543     H
C       0.1184   0.3883   0.1805     C
C       0.1189   0.9113   0.0558     C
H       0.1189   0.9742   0.2789     H
H       0.1195   0.4548   0.2562     H
C        0.121   0.4462   0.4273     C
C       0.1211   0.7491   0.2573     C
H        0.122   0.1766   0.6688     H
O       0.1223   0.9999  0.84314     O
C       0.1224   0.3469   0.1766     C
C       0.1232    0.985   0.7206     C
H        0.124   0.7195   0.3536     H
Co     0.12447  0.01996  0.89615    Co
C       0.1248   0.5108   0.2417     C
Co       0.125  0.89025  0.14025    Co
C       0.1252   0.9917   0.7608     C
Co     0.12553  0.64615  0.26996    Co
H        0.126   0.1036   0.9695     H
C       0.1268   0.4706    0.235     C
C       0.1276   0.9266   0.5969     C
O       0.1277  0.59314   0.2499     O
H        0.128   0.4188   0.4266     H
C       0.1289   0.0073   0.9991     C
C        0.129   0.1773   0.6962     C
H       0.1305   0.0062   0.7048     H
H       0.1311   0.0289   0.2242     H
C       0.1311   0.8058   0.1613     C
C       0.1316   0.9305   0.6383     C
H       0.1319   0.2043   0.7045     H
H       0.1322   0.8866   0.2622     H
C       0.1327   0.8952   0.2352     C
H       0.1335   0.0159   0.7707     H
N      0.13386  0.68555  0.22565     N
C       0.1354   0.5355   0.2116     C
H       0.1358   0.0289   0.9821     H
H       0.1366   0.1178   0.0122     H
C       0.1368   0.7248   0.2239     C
H       0.1369   0.0779   0.8166     H
C        0.138   0.4509    0.202     C
C       0.1383   0.3684   0.0695     C
C       0.1394   0.5779   0.2216     C
C       0.1397   0.2098   0.0644     C
Co     0.14025    0.125  0.89025    Co
O       0.1408    0.268   0.1659     O
Co     0.14085  0.21312  0.15521    Co
H       0.1409   0.7675   0.2657     H
H       0.1414   0.4615    0.415     H
C       0.1426   0.4319   0.0418     C
H       0.1427    0.278   0.9685     H
C       0.1452   0.1173   0.9852     C
N       0.1461   0.6732   0.1907     N
Co     0.14615  0.23004  0.87447    Co
H       0.1462   0.9201   0.2335     H
H       0.1464    0.876   0.2195     H
H       0.1469   0.8188   0.5081     H
C       0.1474   0.5188   0.1764     C
C       0.1475   0.4121   0.1962     C
H       0.1476   0.6488   0.1841     H
H       0.1479   0.9159   0.5819     H
C       0.1481   0.4781   0.1734     C
C       0.1481   0.7949   0.6874     C
N      0.14812  0.16578  0.93205     N
H       0.1488   0.3159   0.8524     H
C       0.1492   0.8084   0.4818     C
H       0.1493   0.1563   0.4678     H
C       0.1496   0.1578   0.9707     C
H         0.15    0.345   0.0779     H
C       0.1501   0.7369   0.1874     C
N      0.15028    0.839   0.1517     N
N      0.15046  0.95137  0.40377     N
N       0.1517  0.15028    0.839     N
O       0.1518   0.5939    0.551     O
H       0.1519   0.9987   0.0132     H
C       0.1531   0.8234   0.6224     C
N      0.15377  0.20137  0.09954     N
N      0.15397  0.20499  0.92671     N
H       0.1548   0.5346   0.1552     H
H        0.155   0.9221     0.65     H
H       0.1552   0.1548   0.5346     H
H       0.1552   0.2524   0.7859     H
H       0.1552   0.7808   0.4831     H
Co     0.15521  0.14085  0.21312    Co
C       0.1556   0.7024   0.1674     C
H       0.1557   0.0581   0.2502     H
N      0.15593   0.9302  0.43848     N
O       0.1561   0.5982    0.199     O
H       0.1562   0.0806   0.7747     H
H       0.1563   0.4678   0.1493     H
N      0.15662  0.19067  0.83322     N
O      0.15686   0.6223   0.5001     O
C       0.1572   0.0379   0.2304     C
C       0.1572   0.3293   0.1891     C
H       0.1576   0.4522   0.0311     H
C       0.1578   0.9707   0.1496     C
C       0.1583   0.1913   0.9918     C
C       0.1585   0.7773   0.1737     C
C       0.1592   0.0875    0.802     C
C       0.1593   0.2216   0.9628     C
H       0.1598   0.7865   0.7107     H
N        0.161   0.6517  0.34972     N
C       0.1613   0.1311   0.8058     C
C       0.1621   0.3975   0.0538     C
C       0.1625   0.9092    0.052     C
C        0.163   0.2843   0.1855     C
C       0.1632   0.1945   0.0342     C
H        0.165   0.7115   0.1086     H
N      0.16578  0.93205  0.14812     N
H       0.1659   0.1021   0.3319     H
O       0.1659   0.1408    0.268     O
N      0.16678  0.65662  0.30933     N
C       0.1673    0.264   0.9669     C
C       0.1674   0.1556   0.7024     C
H       0.1681   0.8341   0.6021     H
H       0.1688    0.378   0.8234     H
H       0.1694   0.9062   0.0247     H
C       0.1698   0.1938   0.7959     C
H         0.17    0.822   0.4681     H
H       0.1701   0.1038   0.9835     H
C       0.1707   0.8109   0.6572     C
H       0.1721    0.095      0.4     H
C       0.1721   0.6106   0.5284     C
H       0.1721   0.8869   0.0666     H
H       0.1726   0.0162   0.2401     H
N       0.1732   0.3093   0.8539     N
C       0.1734   0.1481   0.4781     C
C       0.1737   0.1585   0.7773     C
H        0.174   0.9329   0.0622     H
C       0.1764   0.0544   0.1936     C
C       0.1764   0.1474   0.5188     C
C       0.1765   0.2353   0.7782     C
C       0.1766   0.1224   0.3469     C
H       0.1766   0.6688    0.122     H
N      0.17671  0.04501  0.90397     N
H       0.1773   0.2335   0.7499     H
C       0.1773   0.6962    0.129     C
H        0.178   0.9681     0.33     H
N       0.1802  0.09407  0.18848     N
C       0.1805   0.1184   0.3883     C
H       0.1812   0.0081   0.3531     H
H       0.1819    0.273   0.9444     H
C       0.1819   0.3926   0.2082     C
N      0.18205  0.08422  0.89812     N
H       0.1823   0.2685   0.9905     H
O       0.1825   0.1825   0.1825     O
H       0.1829    0.076   0.8122     H
H       0.1834   0.6369   0.4221     H
H       0.1841   0.1476   0.6488     H
C       0.1855    0.163   0.2843     C
N      0.18555  0.27435  0.86614     N
C       0.1856   0.9598   0.3897     C
C       0.1874   0.1501   0.7369     C
C       0.1874   0.3519   0.2051     C
H       0.1878   0.6829    0.424     H
N      0.18848   0.1802  0.09407     N
C       0.1891   0.1572   0.3293     C
N      0.19067  0.83322  0.15662     N
N       0.1907   0.1461   0.6732     N
C       0.1913   0.9918   0.1583     C
C       0.1916   0.9818   0.3508     C
H       0.1919   0.9057   0.5002     H
C       0.1936   0.1764   0.0544     C
C       0.1938   0.7959   0.1698     C
C       0.1942   0.6613   0.3689     C
O       0.1943   0.2669   0.2062     O
H       0.1944    0.977   0.9319     H
C       0.1945   0.0342   0.1632     C
C       0.1956   0.9264   0.4436     C
C       0.1962   0.1475   0.4121     C
C       0.1962    0.371   0.8227     C
C        0.198   0.6592   0.4125     C
O        0.199   0.1561   0.5982     O
C       0.2009    0.388    0.048     C
H        0.201   0.2458   0.7877     H
N      0.20137  0.09954  0.15377     N
C        0.202    0.138   0.4509     C
H       0.2022   0.4076   0.2189     H
C       0.2024   0.3326   0.8444     C
C       0.2041   0.6698   0.3062     C
H       0.2043   0.7045   0.1319     H
H       0.2045   0.3681   0.7957     H
H       0.2048   0.3695   0.9938     H
N      0.20499  0.92671  0.15397     N
C       0.2051   0.1874   0.3519     C
O       0.2062   0.1943   0.2669     O
C       0.2082   0.1819   0.3926     C
C       0.2098   0.0644   0.1397     C
H       0.2107   0.3402   0.2135     H
H       0.2115   0.3914    0.835     H
C       0.2116   0.1354   0.5355     C
C       0.2121   0.9072   0.4804     C
H       0.2123    0.701   0.2542     H
C       0.2128   0.0284   0.9093     C
Co     0.21312  0.15521  0.14085    Co
H       0.2135   0.2107   0.3402     H
H       0.2141   0.6552   0.2476     H
C       0.2145   0.6146   0.5384     C
Co      0.2149   0.2149   0.2149    Co
H       0.2154   0.5952   0.5948     H
C       0.2157   0.8145    0.663     C
C       0.2158   0.9445   0.4132     C
C       0.2169    0.986   0.9173     C
H       0.2178   0.4063   0.1007     H
H       0.2181    0.072     0.08     H
H       0.2185    0.972   0.8927     H
H       0.2189   0.2022   0.4076     H
H       0.2192   0.9831   0.3448     H
H       0.2195   0.1464    0.876     H
C       0.2206   0.3768    0.015     C
C       0.2207   0.0922   0.8996     C
H       0.2211   0.8811   0.4742     H
H       0.2211   0.8858   0.2321     H
C       0.2216   0.1394   0.5779     C
C       0.2216   0.9628   0.1593     C
C       0.2218   0.6765   0.2647     C
H        0.222   0.0315   0.6427     H
C       0.2227   0.6737   0.3415     C
C       0.2239   0.1368   0.7248     C
H       0.2242   0.1311   0.0289     H
C       0.2248   0.2761   0.8632     C
H       0.2253   0.6562   0.4194     H
N      0.22565  0.13386  0.68555     N
H        0.227   0.0556   0.6819     H
C       0.2281   0.3981   0.0766     C
H       0.2293   0.6335   0.4841     H
Co     0.23004  0.87447  0.14615    Co
C       0.2304   0.1572   0.0379     C
C       0.2312   0.6026   0.5736     C
H       0.2315   0.0095   0.6823     H
C       0.2318   0.0584   0.1008     C
O        0.232   0.8341   0.6408     O
H       0.2321   0.2211   0.8858     H
H       0.2325   0.7657   0.3591     H
H       0.2331   0.0308   0.0948     H
O       0.2331   0.7938   0.6943     O
H       0.2335   0.1462   0.9201     H
H       0.2335   0.7499   0.1773     H
H       0.2338   0.9226   0.4901     H
H       0.2341   0.8835   0.0207     H
H       0.2343   0.8591   0.2675     H
C        0.235   0.1268   0.4706     C
C       0.2352   0.1327   0.8952     C
C       0.2353   0.7782   0.1765     C
C        0.236   0.0331   0.6673     C
H       0.2368   0.7487   0.4019     H
C       0.2369   0.3126   0.8499     C
H       0.2378   0.8678   0.3866     H
C       0.2392   0.6252   0.5083     C
H       0.2401   0.1726   0.0162     H
H       0.2405   0.9815   0.9323     H
C       0.2417   0.1248   0.5108     C
C       0.2418   0.0587   0.9083     C
H       0.2419   0.9312   0.6031     H
C       0.2427   0.8789   0.2491     C
H       0.2438   0.8805   0.9548     H
H       0.2458   0.7877    0.201     H
H       0.2476   0.2141   0.6552     H
H       0.2487   0.0981   0.7632     H
C       0.2491   0.2427   0.8789     C
H       0.2498   0.8443   0.5581     H
O       0.2499   0.1277  0.59314     O
H       0.2499   0.3227   0.7665     H
H       0.2501   0.6773   0.2665     H
O       0.2501   0.8723  0.09314     O
H       0.2502   0.1557   0.0581     H
C       0.2509   0.7573   0.3789     C
H       0.2513   0.9019   0.2632     H
H       0.2524   0.7859   0.1552     H
H       0.2542   0.2123    0.701     H
H       0.2562   0.1195   0.4548     H
C       0.2573   0.1211   0.7491     C
H       0.2581   0.0688   0.1031     H
C       0.2582   0.9413   0.4083     C
C       0.2583   0.8752   0.0108     C
H       0.2595   0.0185   0.4323     H
H       0.2599   0.8274   0.5162     H
C       0.2608   0.3748   0.0083     C
H       0.2622   0.1322   0.8866     H
C       0.2631   0.6874   0.3499     C
H       0.2632   0.2513   0.9019     H
C        0.264   0.9669   0.1673     C
C       0.2647   0.2218   0.6765     C
C       0.2648   0.8673   0.3952     C
C        0.265   0.8732   0.9706     C
H       0.2657   0.1409   0.7675     H
H       0.2659   0.1165   0.5207     H
H       0.2662   0.0774   0.9901     H
H       0.2665   0.2501   0.6773     H
H       0.2665   0.8538   0.4201     H
O       0.2669   0.2062   0.1943     O
H       0.2669   0.9692   0.5948     H
H       0.2675   0.2343   0.8591     H
H       0.2679   0.7789   0.3858     H
O        0.268   0.1659   0.1408     O
C       0.2682   0.9416   0.6008     C
H       0.2685   0.9905   0.1823     H
C       0.2688   0.3974   0.0736     C
C       0.2696   0.8428   0.5379     C
Co     0.26996  0.12553  0.64615    Co
H       0.2707   0.3665   0.9841     H
C       0.2719   0.6019   0.5766     C
H        0.273   0.9444   0.1819     H
N      0.27435  0.86614  0.18555     N
H       0.2747   0.3438   0.9194     H
C       0.2752   0.7239   0.3632     C
H       0.2758   0.8689   0.5289     H
C       0.2761   0.8632   0.2248     C
C       0.2773   0.3263   0.8415     C
H        0.278   0.9685   0.1427     H
C       0.2782   0.3235   0.7647     C
C       0.2784   0.0372   0.6593     C
C       0.2784   0.8606   0.0779     C
H       0.2789   0.1142   0.7321     H
H       0.2789   0.1189   0.9742     H
C       0.2793   0.9078   0.3996     C
C       0.2794   0.6232    0.515     C
H       0.2805   0.8536    0.376     H
H       0.2808   0.0169   0.8448     H
H       0.2811   0.7978   0.9076     H
H       0.2815    0.028   0.3927     H
H       0.2819    0.928     0.58     H
H       0.2822   0.5937   0.6007     H
C       0.2831    0.014   0.4173     C
C       0.2842   0.0555   0.9132     C
C       0.2843   0.1855    0.163     C
H       0.2846   0.4048   0.0948     H
Co      0.2851   0.7851   0.7149    Co
C       0.2855   0.3854   0.0384     C
H       0.2859   0.3448   0.7476     H
H       0.2865   0.7893   0.8402     H
Co     0.28688  0.84479  0.64085    Co
C       0.2872   0.9716   0.4093     C
H       0.2877    0.299   0.7542     H
C       0.2879   0.0928   0.9804     C
C       0.2884   0.8646   0.0355     C
H       0.2885   0.6086    0.335     H
H       0.2893   0.6598   0.7135     H
C       0.2902   0.9356   0.6397     C
C       0.2918   0.8181   0.8926     C
O       0.2938   0.8057   0.7669     O
C       0.2949   0.8126   0.8519     C
N      0.29501  0.07329  0.65397     N
H       0.2952   0.6305   0.4938     H
H       0.2955   0.6319   0.2957     H
H       0.2957   0.2955   0.6319     H
C       0.2959   0.3302   0.8062     C
C       0.2976   0.6674   0.3444     C
H       0.2978   0.5924   0.7189     H
C        0.298    0.862   0.9509     C
N      0.29863  0.90046  0.65377     N
H        0.299   0.7542   0.2877     H
C       0.2991    0.612    0.548     C
O        0.301   0.8439   0.0982     O
C        0.302   0.3408   0.9125     C
C       0.3038    0.629   0.3227     C
C       0.3038   0.8525   0.9121     C
C       0.3044   0.0736   0.9436     C
C       0.3055   0.9658   0.6632     C
H       0.3056    0.023   0.4319     H
O       0.3057   0.7331   0.7062     O
C       0.3058   0.3387   0.8689     C
C       0.3062   0.2041   0.6698     C
C       0.3064   0.8236   0.5544     C
H       0.3081   0.0943   0.0002     H
C       0.3084   0.0182   0.8508     C
C       0.3087   0.0082   0.6583     C
N       0.3093   0.8539   0.1732     N
N      0.30933  0.16678  0.65662     N
C       0.3109   0.8428   0.8293     C
N      0.31152   0.8198  0.59407     N
H       0.3122   0.3171    0.924     H
C       0.3126   0.6481   0.7051     C
C       0.3126   0.8499   0.2369     C
C       0.3144   0.0402   0.8897     C
N      0.31445  0.72565  0.36614     N
C       0.3145    0.837   0.7843     C
H       0.3159   0.8524   0.1488     H
H       0.3166   0.3631   0.9221     H
H       0.3171    0.924   0.3122     H
O       0.3175   0.8175   0.6825     O
H       0.3177   0.7315   0.4905     H
N      0.31795  0.91578  0.39812     N
C       0.3181   0.6074   0.7082     C
H       0.3181    0.727   0.4444     H
H       0.3188   0.9919   0.8531     H
C       0.3195   0.8816   0.8883     C
N       0.3198  0.90593  0.68848     N
H        0.322   0.0319     0.83     H
C       0.3227   0.3038    0.629     C
H       0.3227   0.7665   0.2499     H
N      0.32329  0.95499  0.40397     N
H       0.3234   0.3312    0.622     H
C       0.3234   0.8776   0.8469     C
C       0.3235   0.7647   0.2782     C
C       0.3236   0.8526   0.0188     C
C       0.3236   0.9456   0.6936     C
H        0.326   0.0671   0.5622     H
C       0.3263   0.8415   0.2773     C
C       0.3266   0.8519   0.9781     C
N       0.3268   0.6907   0.3539     N
H       0.3274   0.9838   0.7401     H
H       0.3279   0.1131   0.5666     H
C       0.3279   0.3894   0.0284     C
H       0.3279    0.905      0.9     H
C       0.3293   0.1891   0.1572     C
H       0.3299   0.8962   0.4835     H
H         0.33    0.178   0.9681     H
C       0.3302   0.8062   0.2959     C
H       0.3306   0.0938   0.5247     H
H       0.3312    0.622   0.3234     H
H       0.3319   0.1659   0.1021     H
C       0.3326   0.8444   0.2024     C
C       0.3327    0.736   0.4669     C
N      0.33322  0.34338  0.80933     N
O       0.3341   0.8592    0.768     O
H       0.3341   0.8979   0.8319     H
N      0.33422  0.06795  0.64812     N
H        0.335   0.2885   0.6086     H
C       0.3368   0.8055   0.5342     C
C        0.337   0.7157   0.6855     C
C       0.3375   0.0908    0.552     C
C       0.3379   0.6025   0.5538     C
C       0.3387   0.8689   0.3058     C
N        0.339   0.3483  0.84972     N
H       0.3402   0.2135   0.2107     H
C       0.3407   0.7784   0.4628     C
C       0.3408   0.9125    0.302     C
C       0.3415   0.2227   0.6737     C
C       0.3417   0.8087   0.4918     C
C       0.3422   0.0293   0.6496     C
H       0.3424   0.5478   0.5311     H
C       0.3428   0.6707   0.6891     C
C       0.3428   0.9621   0.7304     C
O      0.34314   0.3777   0.0001     O
N      0.34338  0.80933  0.33322     N
H       0.3437   0.5322   0.6493     H
H       0.3438   0.9194   0.2747     H
O       0.3439   0.4018    0.699     O
N      0.34407   0.0698  0.93848     N
H       0.3443   0.9419   0.7502     H
C       0.3444   0.2976   0.6674     C
Co     0.34479  0.85915  0.71312    Co
H       0.3448   0.2192   0.9831     H
H       0.3448   0.7476   0.2859     H
H       0.3448   0.8452   0.0346     H
H        0.345   0.0779     0.15     H
H       0.3452   0.4654   0.6552     H
N      0.34603  0.79501  0.42671     N
N      0.34623  0.79863  0.59954     N
C       0.3469   0.1766   0.1224     C
H       0.3481   0.0013   0.5132     H
O       0.3482   0.4061    0.051     O
N       0.3483  0.84972    0.339     N
N      0.34954  0.04863  0.90377     N
N      0.34972    0.161   0.6517     N
C       0.3499   0.2631   0.6874     C
H         0.35    0.655   0.5779     H
C       0.3504   0.8422   0.4707     C
H       0.3507   0.8437   0.9678     H
C       0.3508   0.1916   0.9818     C
H       0.3512   0.6841   0.3524     H
N      0.35188  0.83422  0.43205     N
C       0.3519   0.2051   0.1874     C
C       0.3519   0.5219   0.6734     C
H       0.3521   0.0841   0.0819     H
H       0.3524   0.3512   0.6841     H
C       0.3525   0.5879   0.6962     C
C       0.3526   0.4812   0.6764     C
H       0.3531   0.1812   0.0081     H
H       0.3536    0.124   0.7195     H
H       0.3538   0.0799   0.7335     H
Co     0.35385  0.76996  0.37447    Co
N       0.3539   0.3268   0.6907     N
C       0.3548   0.8827   0.4852     C
H       0.3573    0.722   0.4685     H
C       0.3574   0.5681   0.5418     C
H       0.3586   0.5385    0.915     H
H       0.3591   0.2325   0.7657     H
Co     0.35915  0.78688  0.65521    Co
O       0.3592    0.732   0.6659     O
Co     0.35975    0.875  0.39025    Co
C       0.3603   0.7902   0.5644     C
C       0.3606   0.4221   0.7216     C
C       0.3617   0.6316   0.5695     C
C        0.362   0.5491    0.702     C
H       0.3631   0.9221   0.3166     H
C       0.3632   0.2752   0.7239     C
H       0.3634   0.8822   0.5122     H
H       0.3642   0.9711   0.4821     H
C       0.3646   0.4645   0.7116     C
N      0.36614  0.31445  0.72565     N
H       0.3665   0.9841   0.2707     H
C       0.3673   0.1048   0.7352     C
H       0.3678   0.1134   0.7622     H
H       0.3681   0.7957   0.2045     H
C       0.3684   0.0695   0.1383     C
C       0.3689   0.1942   0.6613     C
H       0.3689   0.9711   0.7242     H
H       0.3695   0.9938   0.2048     H
C        0.371   0.8227   0.1962     C
C       0.3711   0.9927   0.4991     C
H        0.372   0.5812   0.9266     H
O       0.3723  0.40686   0.7499     O
C       0.3724   0.0734   0.0969     C
C       0.3732   0.5294    0.735     C
H        0.374   0.8964   0.4695     H
Co     0.37447  0.35385  0.76996    Co
C       0.3748   0.0083   0.2608     C
Co       0.375  0.10975  0.64025    Co
C       0.3752   0.4892   0.7417     C
Co     0.37553  0.98004  0.39615    Co
H        0.376   0.2805   0.8536     H
C       0.3768    0.015   0.2206     C
C       0.3776   0.6531   0.6766     C
O       0.3777   0.0001  0.34314     O
H        0.378   0.8234   0.1688     H
C       0.3789   0.2509   0.7573     C
C        0.379   0.5538   0.9273     C
H       0.3805   0.5452   0.7562     H
H       0.3811   0.0258   0.7789     H
C       0.3811   0.0887   0.5558     C
C       0.3816   0.6117   0.6805     C
H       0.3819   0.5455   0.9543     H
H       0.3822   0.9878   0.6366     H
C       0.3827   0.0148   0.6452     C
H       0.3835   0.4793   0.7659     H
N      0.38386  0.02435  0.43555     N
C       0.3854   0.0384   0.2855     C
H       0.3858   0.2679   0.7789     H
H       0.3866   0.2378   0.8678     H
C       0.3868   0.0261   0.4748     C
H       0.3869   0.4334   0.8279     H
C        0.388    0.048   0.2009     C
C       0.3883   0.1805   0.1184     C
C       0.3894   0.0284   0.3279     C
C       0.3897   0.1856   0.9598     C
Co     0.39025  0.35975    0.875    Co
O       0.3908   0.0841    0.018     O
Co     0.39085  0.09479  0.96312    Co
H       0.3909   0.9843   0.5175     H
H       0.3914    0.835   0.2115     H
C       0.3926   0.2082   0.1819     C
H       0.3927   0.2815    0.028     H
C       0.3952   0.2648   0.8673     C
N       0.3961   0.0593   0.4232     N
Co     0.39615  0.37553  0.98004    Co
H       0.3962   0.0165   0.6701     H
H       0.3964   0.0305    0.626     H
H       0.3969   0.7419   0.5688     H
C       0.3974   0.0736   0.2688     C
C       0.3975   0.0538   0.1621     C
H       0.3976   0.0659   0.3988     H
H       0.3979   0.6681   0.6659     H
C       0.3981   0.0766   0.2281     C
C       0.3981   0.5626   0.5449     C
N      0.39812  0.31795  0.91578     N
H       0.3988   0.3976   0.0659     H
C       0.3992   0.7682   0.5584     C
H       0.3993   0.7822   0.9063     H
C       0.3996   0.2793   0.9078     C
H          0.4   0.1721    0.095     H
C       0.4001   0.0626   0.4869     C
N      0.40028   0.0983    0.589     N
N      0.40046  0.84623  0.70137     N
N       0.4017    0.411  0.90028     N
O       0.4018    0.699   0.3439     O
H       0.4019   0.2368   0.7487     H
C       0.4031   0.6276   0.5734     C
N      0.40377  0.15046  0.95137     N
N      0.40397  0.32329  0.95499     N
H       0.4048   0.0948   0.2846     H
H        0.405      0.6   0.6721     H
H       0.4052   0.4641   0.0024     H
H       0.4052   0.7154   0.9048     H
H       0.4052   0.7669   0.5308     H
Co     0.40521  0.03688  0.89085    Co
C       0.4056   0.0826   0.4524     C
H       0.4057   0.9998   0.8081     H
N      0.40593  0.81152   0.6802     N
O       0.4061    0.051   0.3482     O
H       0.4062   0.4753   0.8306     H
H       0.4063   0.1007   0.2178     H
N      0.40662  0.41678  0.94067     N
O      0.40686   0.7499   0.3723     O
C       0.4072   0.0196   0.7879     C
C       0.4072   0.0609   0.0793     C
H       0.4076   0.2189   0.2022     H
C       0.4078   0.1004   0.7207     C
C       0.4083   0.2582   0.9413     C
C       0.4085   0.0763   0.5273     C
C       0.4092    0.448   0.8375     C
C       0.4093   0.2872   0.9716     C
H       0.4098   0.5393   0.5365     H
N        0.411  0.90028   0.4017     N
C       0.4113   0.4442   0.8811     C
C       0.4121   0.1962   0.1475     C
C       0.4125    0.198   0.6592     C
C        0.413   0.0645   0.0343     C
C       0.4132   0.2158   0.9445     C
H        0.415   0.1414   0.4615     H
N      0.41578  0.10188  0.68205     N
H       0.4159   0.9181   0.8521     H
O       0.4159    0.982   0.8908     O
N      0.41678  0.94067  0.40662     N
C       0.4173   0.2831    0.014     C
C       0.4174   0.5476   0.9056     C
H       0.4181   0.6479   0.5841     H
H       0.4188   0.4266    0.128     H
H       0.4194   0.2253   0.6562     H
C       0.4198   0.4541   0.9438     C
H         0.42   0.7819    0.572     H
H       0.4201   0.2665   0.8538     H
C       0.4207   0.5928   0.5609     C
H       0.4221   0.1834   0.6369     H
C       0.4221   0.7216   0.3606     C
H       0.4221     0.85    0.845     H
H       0.4226   0.0099   0.7662     H
N       0.4232   0.3961   0.0593     N
C       0.4234   0.7719   0.8981     C
C       0.4237   0.4727   0.9085     C
H        0.424   0.1878   0.6829     H
C       0.4264   0.0564   0.8044     C
C       0.4264   0.7312   0.8974     C
C       0.4265   0.4718   0.9853     C
H       0.4266    0.128   0.4188     H
C       0.4266   0.9031   0.8724     C
N      0.42671  0.34603  0.79501     N
C       0.4273    0.121   0.4462     C
H       0.4273   0.5001   0.9835     H
H        0.428     0.92   0.7181     H
N       0.4302  0.06152  0.84407     N
C       0.4305   0.8617   0.8684     C
H       0.4312   0.8969   0.7581     H
C       0.4319   0.0418   0.1426     C
H       0.4319   0.3056    0.023     H
N      0.43205  0.35188  0.83422     N
H       0.4323   0.2595   0.0185     H
O       0.4325   0.0675   0.9325     O
H       0.4329   0.4378    0.826     H
H       0.4334   0.8279   0.3869     H
H       0.4341   0.6012   0.8976     H
C       0.4355   0.9657    0.913     C
N      0.43555  0.38386  0.02435     N
C       0.4356   0.8603   0.7098     C
C       0.4374   0.0449   0.1019     C
C       0.4374   0.5131   0.9001     C
H       0.4378    0.826   0.4329     H
N      0.43848  0.15593   0.9302     N
C       0.4391   0.9207   0.9072     C
N      0.44067  0.09338  0.58322     N
N       0.4407   0.5768   0.8961     N
C       0.4413   0.0917   0.7418     C
C       0.4416   0.8992   0.7318     C
H       0.4419   0.7498   0.6557     H
C       0.4436   0.1956   0.9264     C
C       0.4438   0.0802   0.5459     C
C       0.4442   0.8811   0.4113     C
O       0.4443   0.0438   0.0169     O
H       0.4444   0.3181    0.727     H
C       0.4445   0.0868   0.7842     C
C       0.4456   0.8064   0.6764     C
C       0.4462   0.4273    0.121     C
C       0.4462   0.8379   0.8975     C
C        0.448   0.8375   0.4092     C
O        0.449   0.6518   0.9061     O
C       0.4509    0.202    0.138     C
H        0.451   0.4623   0.9958     H
N      0.45137  0.09623  0.84954     N
C        0.452   0.7991    0.888     C
H       0.4522   0.0311   0.1576     H
C       0.4524   0.4056   0.0826     C
C       0.4541   0.9438   0.4198     C
H       0.4543   0.1181   0.4545     H
H       0.4545   0.4543   0.1181     H
H       0.4548   0.2562   0.1195     H
N      0.45499  0.09603  0.67671     N
C       0.4551   0.8981   0.9374     C
O       0.4562   0.9831   0.9443     O
C       0.4582   0.8574   0.9319     C
C       0.4598   0.1103   0.8144     C
H       0.4607   0.0365   0.0902     H
H       0.4615    0.415   0.1414     H
C       0.4616   0.7145   0.8854     C
C       0.4621   0.7696   0.6572     C
H       0.4623   0.9958    0.451     H
C       0.4628   0.3407   0.7784     C
Co     0.46312  0.10915  0.90521    Co
H       0.4635   0.9098   0.9607     H
H       0.4641   0.0024   0.4052     H
C       0.4645   0.7116   0.3646     C
Co      0.4649   0.0351   0.9649    Co
H       0.4654   0.6552   0.3452     H
C       0.4657    0.587   0.5645     C
C       0.4658   0.8368   0.6945     C
C       0.4669   0.3327    0.736     C
H       0.4678   0.1493   0.1563     H
H       0.4681     0.17    0.822     H
H       0.4685   0.3573    0.722     H
H       0.4689   0.8424   0.9522     H
H       0.4692   0.9052   0.7331     H
H       0.4695    0.374   0.8964     H
C       0.4706    0.235   0.1268     C
C       0.4707   0.3504   0.8422     C
H       0.4711   0.0179   0.6358     H
H       0.4711   0.7758   0.6311     H
C       0.4716   0.0907   0.7128     C
C       0.4716   0.6721   0.8894     C
C       0.4718   0.9853   0.4265     C
H        0.472   0.6073   0.7815     H
C       0.4727   0.9085   0.4237     C
C       0.4739   0.5252   0.8868     C
H       0.4742   0.2211   0.8811     H
C       0.4748   0.3868   0.0261     C
H       0.4753   0.8306   0.4062     H
N      0.47565  0.56445  0.88386     N
H        0.477   0.5681   0.8056     H
C       0.4781   0.1734   0.1481     C
H       0.4793   0.7659   0.3835     H
Co     0.48004  0.10385  0.62447    Co
C       0.4804   0.2121   0.9072     C
C       0.4812   0.6764   0.3526     C
H       0.4815   0.5677   0.7595     H
C       0.4818   0.1492   0.8084     C
O        0.482   0.6092   0.5841     O
H       0.4821   0.3642   0.9711     H
H       0.4825   0.8909   0.5157     H
H       0.4831   0.1552   0.7808     H
O       0.4831   0.5557   0.5438     O
H       0.4835   0.0727   0.4999     H
H       0.4835   0.3299   0.8962     H
H       0.4838   0.7599   0.6726     H
H       0.4841   0.2293   0.6335     H
H       0.4843   0.9825   0.6091     H
C        0.485   0.7794   0.8768     C
C       0.4852   0.3548   0.8827     C
C       0.4853   0.0735   0.5282     C
C        0.486   0.5827   0.7831     C
H       0.4868   0.8481   0.4987     H
C       0.4869   0.4001   0.0626     C
H       0.4878   0.8634   0.6178     H
C       0.4892   0.7417   0.3752     C
H       0.4901   0.2338   0.9226     H
H       0.4905   0.3177   0.7315     H
C       0.4917   0.7392   0.8748     C
C       0.4918   0.3417   0.8087     C
H       0.4919   0.6469   0.6812     H
C       0.4927   0.0009   0.6289     C
H       0.4938   0.2952   0.6305     H
H       0.4958    0.049   0.5377     H
H       0.4976   0.5948   0.9641     H
H       0.4987   0.4868   0.8481     H
C       0.4991   0.3711   0.9927     C
H       0.4998   0.6919   0.5943     H
H       0.4999   0.4835   0.0727     H
O       0.4999  0.65686   0.8777     O
O       0.5001  0.15686   0.6223     O
H       0.5001   0.9835   0.4273     H
H       0.5002   0.1919   0.9057     H
C       0.5009   0.8711   0.5073     C
H       0.5013   0.9868   0.6519     H
H       0.5024   0.0948   0.5359     H
H       0.5042    0.549   0.9623     H
H       0.5062   0.7952   0.8695     H
C       0.5073   0.5009   0.8711     C
H       0.5081   0.1469   0.8188     H
C       0.5082   0.8417   0.6913     C
C       0.5083   0.2392   0.6252     C
H       0.5095   0.8177   0.7685     H
H       0.5099   0.7338   0.5774     H
C       0.5108   0.2417   0.1248     C
H       0.5122   0.3634   0.8822     H
C       0.5131   0.9001   0.4374     C
H       0.5132   0.3481   0.0013     H
C        0.514   0.0827   0.7169     C
C       0.5147   0.5735   0.9718     C
C       0.5148   0.8548   0.6173     C
C        0.515   0.2794   0.6232     C
H       0.5157   0.4825   0.8909     H
H       0.5159   0.7293   0.8665     H
H       0.5162   0.2599   0.8274     H
H       0.5165   0.5727   0.0001     H
H       0.5165   0.8299   0.6038     H
O       0.5169   0.0557   0.9562     O
H       0.5169   0.6552   0.7192     H
H       0.5175   0.3909   0.9843     H
H       0.5179   0.8642   0.5289     H
O        0.518   0.1092   0.9159     O
C       0.5182   0.6492   0.6916     C
H       0.5185   0.0677   0.7405     H
C       0.5188   0.1764   0.1474     C
C       0.5196   0.7121   0.5928     C
Co     0.51996  0.60385  0.87553    Co
H       0.5207   0.2659   0.1165     H
C       0.5219   0.6734   0.3519     C
H        0.523   0.0681   0.6944     H
N      0.52435  0.06445  0.61614     N
H       0.5247   0.3306   0.0938     H
C       0.5252   0.8868   0.4739     C
H       0.5258   0.7211   0.6189     H
C       0.5261   0.0252   0.6132     C
C       0.5273   0.4085   0.0763     C
H        0.528   0.1073   0.7185     H
C       0.5282   0.4853   0.0735     C
C       0.5284   0.1721   0.6106     C
C       0.5284   0.5907   0.7872     C
H       0.5289   0.2758   0.8689     H
H       0.5289   0.5179   0.8642     H
C       0.5293   0.8504   0.6578     C
C       0.5294    0.735   0.3732     C
H       0.5305    0.874   0.6036     H
H       0.5308   0.4052   0.7669     H
H       0.5311   0.3424   0.5478     H
H       0.5315   0.8573    0.778     H
H       0.5319     0.67    0.678     H
H       0.5322   0.6493   0.3437     H
C       0.5331   0.8327    0.764     C
C       0.5342   0.3368   0.8055     C
C       0.5343    0.087   0.9355     C
H       0.5346   0.1552   0.1548     H
Co      0.5351   0.5351   0.5351    Co
C       0.5355   0.2116   0.1354     C
H       0.5359   0.5024   0.0948     H
H       0.5365   0.4098   0.5393     H
Co     0.53688  0.60915  0.59479    Co
C       0.5372   0.8407   0.7216     C
H       0.5377   0.4958    0.049     H
C       0.5379   0.2696   0.8428     C
C       0.5384   0.2145   0.6146     C
H       0.5385    0.915   0.3586     H
H       0.5393   0.5365   0.4098     H
C       0.5402   0.6103   0.6856     C
C       0.5418   0.3574   0.5681     C
O       0.5438   0.4831   0.5557     O
C       0.5449   0.3981   0.5626     C
N      0.54501  0.59603  0.82329     N
H       0.5452   0.7562   0.3805     H
H       0.5455   0.9543   0.3819     H
H       0.5457   0.6181   0.0455     H
C       0.5459   0.4438   0.0802     C
C       0.5476   0.9056   0.4174     C
H       0.5478   0.5311   0.3424     H
C        0.548   0.2991    0.612     C
N      0.54863  0.59623  0.65046     N
H        0.549   0.9623   0.5042     H
C       0.5491    0.702    0.362     C
O        0.551   0.1518   0.5939     O
C        0.552   0.3375   0.0908     C
C       0.5538   0.3379   0.6025     C
C       0.5538   0.9273    0.379     C
C       0.5544   0.3064   0.8236     C
C       0.5555   0.5868   0.7158     C
H       0.5556   0.8181    0.773     H
O       0.5557   0.5438   0.4831     O
C       0.5558   0.3811   0.0887     C
C       0.5562   0.5802   0.9541     C
C       0.5564   0.6956   0.5736     C
H       0.5581   0.2498   0.8443     H
C       0.5584   0.3992   0.7682     C
C       0.5587   0.5917   0.7582     C
N       0.5593   0.0768   0.6039     N
N      0.55933  0.59338  0.91678     N
C       0.5609   0.4207   0.5928     C
N      0.56152  0.65593   0.5698     N
H       0.5622    0.326   0.0671     H
C       0.5626   0.0131   0.5999     C
C       0.5626   0.5449   0.3981     C
C       0.5644   0.3603   0.7902     C
N      0.56445  0.88386  0.47565     N
C       0.5645   0.4657    0.587     C
H       0.5659   0.1012   0.6024     H
H       0.5666   0.3279   0.1131     H
H       0.5671   0.9378    0.674     H
O       0.5675   0.5675   0.5675     O
H       0.5677   0.7595   0.4815     H
N      0.56795  0.85188  0.66578     N
C       0.5681   0.5418   0.3574     C
H       0.5681   0.8056    0.477     H
H       0.5688   0.3969   0.7419     H
C       0.5695   0.3617   0.6316     C
N       0.5698  0.56152  0.65593     N
H        0.572     0.42   0.7819     H
H       0.5727   0.0001   0.5165     H
C       0.5727    0.621   0.0538     C
N      0.57329  0.84603  0.70499     N
C       0.5734   0.4031   0.6276     C
H       0.5734    0.628   0.0812     H
C       0.5735   0.9718   0.5147     C
C       0.5736   0.2312   0.6026     C
C       0.5736   0.5564   0.6956     C
H        0.576   0.6878   0.8171     H
C       0.5763   0.9727   0.5915     C
C       0.5766   0.2719   0.6019     C
N       0.5768   0.8961   0.4407     N
H       0.5774   0.5099   0.7338     H
C       0.5779   0.2216   0.1394     C
H       0.5779     0.35    0.655     H
H       0.5779   0.6834   0.8631     H
C       0.5793   0.0928   0.9391     C
H       0.5799   0.7665   0.6462     H
H         0.58   0.2819    0.928     H
C       0.5802   0.9541   0.5562     C
H       0.5806   0.7253   0.8438     H
H       0.5812   0.9266    0.372     H
H       0.5819   0.1479   0.9159     H
C       0.5826   0.0476   0.5944     C
C       0.5827   0.7831    0.486     C
N      0.58322  0.44067  0.09338     N
H       0.5841   0.4181   0.6479     H
O       0.5841    0.482   0.6092     O
N      0.58422  0.60188  0.81795     N
H        0.585   0.6414   0.0385     H
C       0.5868   0.7158   0.5555     C
C        0.587   0.5645   0.4657     C
C       0.5875    0.698   0.8408     C
C       0.5879   0.6962   0.3525     C
C       0.5887   0.9442   0.6189     C
N        0.589  0.40028   0.0983     N
H       0.5902   0.0393   0.9635     H
C       0.5907   0.7872   0.5284     C
C       0.5908    0.948   0.6625     C
C       0.5915   0.5763   0.9727     C
C       0.5917   0.7582   0.5587     C
C       0.5922   0.6004   0.7793     C
H       0.5924   0.7189   0.2978     H
C       0.5928   0.5196   0.7121     C
C       0.5928   0.5609   0.4207     C
O      0.59314   0.2499   0.1277     O
N      0.59338  0.91678  0.55933     N
H       0.5937   0.6007   0.2822     H
H       0.5938   0.9753   0.6694     H
O       0.5939    0.551   0.1518     O
N      0.59407  0.31152   0.8198     N
H       0.5943   0.4998   0.6919     H
C       0.5944   0.5826   0.0476     C
Co     0.59479  0.53688  0.60915    Co
H       0.5948   0.2154   0.5952     H
H       0.5948   0.2669   0.9692     H
H       0.5948   0.9641   0.4976     H
H        0.595      0.1   0.8279     H
H       0.5952   0.5948   0.2154     H
N      0.59603  0.82329  0.54501     N
N      0.59623  0.65046  0.54863     N
C       0.5969   0.1276   0.9266     C
H       0.5981   0.7368   0.7513     H
O       0.5982    0.199   0.1561     O
N       0.5983    0.911  0.59972     N
N      0.59954  0.34623  0.79863     N
N      0.59972   0.5983    0.911     N
C       0.5999   0.5626   0.0131     C
H          0.6   0.6721    0.405     H
C       0.6004   0.7793   0.5922     C
H       0.6007   0.2822   0.5937     H
C       0.6008   0.2682   0.9416     C
H       0.6012   0.8976   0.4341     H
N      0.60188  0.81795  0.58422     N
C       0.6019   0.0626   0.9551     C
C       0.6019   0.5766   0.2719     C
H       0.6021   0.1681   0.8341     H
H       0.6024   0.5659   0.1012     H
C       0.6025   0.5538   0.3379     C
C       0.6026   0.5736   0.2312     C
H       0.6031   0.2419   0.9312     H
H       0.6036   0.5305    0.874     H
H       0.6038   0.5165   0.8299     H
Co     0.60385  0.87553  0.51996    Co
N       0.6039   0.5593   0.0768     N
C       0.6048   0.7648   0.6327     C
H       0.6073   0.7815    0.472     H
C       0.6074   0.7082   0.3181     C
H       0.6086    0.335   0.2885     H
H       0.6091   0.4843   0.9825     H
Co     0.60915  0.59479  0.53688    Co
O       0.6092   0.5841    0.482     O
Co     0.60975  0.85975    0.625    Co
C       0.6103   0.6856   0.5402     C
C       0.6106   0.5284   0.1721     C
C       0.6117   0.6805   0.3816     C
C        0.612    0.548   0.2991     C
H       0.6131   0.9334   0.6721     H
C       0.6132   0.5261   0.0252     C
H       0.6134   0.7378   0.6322     H
H       0.6142   0.7679   0.7211     H
C       0.6146   0.5384   0.2145     C
N      0.61614  0.52435  0.06445     N
H       0.6165   0.9793   0.7341     H
C       0.6173   0.5148   0.8548     C
H       0.6178   0.4878   0.8634     H
H       0.6181   0.0455   0.5457     H
C       0.6184   0.1117   0.8195     C
H       0.6189   0.5258   0.7211     H
C       0.6189   0.5887   0.9442     C
H       0.6195   0.0452   0.7438     H
C        0.621   0.0538   0.5727     C
C       0.6211   0.7509   0.7427     C
H        0.622   0.3234   0.3312     H
O       0.6223   0.5001  0.15686     O
C       0.6224   0.1531   0.8234     C
C       0.6232    0.515   0.2794     C
H        0.624   0.7805   0.6464     H
Co     0.62447  0.48004  0.10385    Co
C       0.6248   0.9892   0.7583     C
Co       0.625  0.60975  0.85975    Co
C       0.6252   0.5083   0.2392     C
Co     0.62553  0.85385  0.73004    Co
H        0.626   0.3964   0.0305     H
C       0.6268   0.0294    0.765     C
C       0.6276   0.5734   0.4031     C
O       0.6277  0.90686   0.7501     O
H        0.628   0.0812   0.5734     H
C       0.6289   0.4927   0.0009     C
C        0.629   0.3227   0.3038     C
H       0.6305   0.4938   0.2952     H
H       0.6311   0.4711   0.7758     H
C       0.6311   0.6942   0.8387     C
C       0.6316   0.5695   0.3617     C
H       0.6319   0.2957   0.2955     H
H       0.6322   0.6134   0.7378     H
C       0.6327   0.6048   0.7648     C
H       0.6335   0.4841   0.2293     H
N      0.63386  0.81445  0.77435     N
C       0.6354   0.9645   0.7884     C
H       0.6358   0.4711   0.0179     H
H       0.6366   0.3822   0.9878     H
C       0.6368   0.7752   0.7761     C
H       0.6369   0.4221   0.1834     H
C        0.638   0.0491    0.798     C
C       0.6383   0.1316   0.9305     C
C       0.6394   0.9221   0.7784     C
C       0.6397   0.2902   0.9356     C
Co     0.64025    0.375  0.10975    Co
O       0.6408    0.232   0.8341     O
Co     0.64085  0.28688  0.84479    Co
H       0.6409   0.7325   0.7343     H
H       0.6414   0.0385    0.585     H
C       0.6426   0.0681   0.9582     C
H       0.6427    0.222   0.0315     H
C       0.6452   0.3827   0.0148     C
N       0.6461   0.8268   0.8093     N
Co     0.64615  0.26996  0.12553    Co
H       0.6462   0.5799   0.7665     H
H       0.6464    0.624   0.7805     H
H       0.6469   0.6812   0.4919     H
C       0.6474   0.9812   0.8236     C
C       0.6475   0.0879   0.8038     C
H       0.6476   0.8512   0.8159     H
H       0.6479   0.5841   0.4181     H
C       0.6481   0.0219   0.8266     C
C       0.6481   0.7051   0.3126     C
N      0.64812  0.33422  0.06795     N
H       0.6488   0.1841   0.1476     H
C       0.6492   0.6916   0.5182     C
H       0.6493   0.3437   0.5322     H
C       0.6496   0.3422   0.0293     C
H         0.65    0.155   0.9221     H
C       0.6501   0.7631   0.8126     C
N      0.65028    0.661   0.8483     N
N      0.65046  0.54863  0.59623     N
N       0.6517  0.34972    0.161     N
O       0.6518   0.9061    0.449     O
H       0.6519   0.5013   0.9868     H
C       0.6531   0.6766   0.3776     C
N      0.65377  0.29863  0.90046     N
N      0.65397  0.29501  0.07329     N
H       0.6548   0.9654   0.8448     H
H        0.655   0.5779     0.35     H
H       0.6552   0.2476   0.2141     H
H       0.6552   0.3452   0.4654     H
H       0.6552   0.7192   0.5169     H
Co     0.65521  0.35915  0.78688    Co
C       0.6556   0.7976   0.8326     C
H       0.6557   0.4419   0.7498     H
N      0.65593   0.5698  0.56152     N
O       0.6561   0.9018    0.801     O
H       0.6562   0.4194   0.2253     H
H       0.6563   0.0322   0.8507     H
N      0.65662  0.30933  0.16678     N
O      0.65686   0.8777   0.4999     O
C       0.6572   0.1707   0.8109     C
C       0.6572   0.4621   0.7696     C
H       0.6576   0.0478   0.9689     H
C       0.6578   0.5293   0.8504     C
C       0.6583   0.3087   0.0082     C
C       0.6585   0.7227   0.8263     C
C       0.6592   0.4125    0.198     C
C       0.6593   0.2784   0.0372     C
H       0.6598   0.7135   0.2893     H
N        0.661   0.8483  0.65028     N
C       0.6613   0.3689   0.1942     C
C       0.6621   0.1025   0.9462     C
C       0.6625   0.5908    0.948     C
C        0.663   0.2157   0.8145     C
C       0.6632   0.3055   0.9658     C
H        0.665   0.7885   0.8914     H
N      0.66578  0.56795  0.85188     N
O       0.6659   0.3592    0.732     O
H       0.6659   0.3979   0.6681     H
N      0.66678  0.84338  0.69067     N
C       0.6673    0.236   0.0331     C
C       0.6674   0.3444   0.2976     C
H       0.6681   0.6659   0.3979     H
H       0.6688    0.122   0.1766     H
H       0.6694   0.5938   0.9753     H
C       0.6698   0.3062   0.2041     C
H         0.67    0.678   0.5319     H
H       0.6701   0.3962   0.0165     H
C       0.6707   0.6891   0.3428     C
H       0.6721    0.405      0.6     H
H       0.6721   0.6131   0.9334     H
C       0.6721   0.8894   0.4716     C
H       0.6726   0.4838   0.7599     H
N       0.6732   0.1907   0.1461     N
C       0.6734   0.3519   0.5219     C
C       0.6737   0.3415   0.2227     C
H        0.674   0.5671   0.9378     H
C       0.6764   0.3526   0.4812     C
C       0.6764   0.4456   0.8064     C
C       0.6765   0.2647   0.2218     C
C       0.6766   0.3776   0.6531     C
H       0.6766   0.8312    0.878     H
N      0.67671  0.45499  0.09603     N
H       0.6773   0.2665   0.2501     H
C       0.6773   0.8038    0.871     C
H        0.678   0.5319     0.67     H
N       0.6802  0.40593  0.81152     N
C       0.6805   0.3816   0.6117     C
H       0.6812   0.4919   0.6469     H
C       0.6819   0.1074   0.7918     C
H       0.6819    0.227   0.0556     H
N      0.68205  0.41578  0.10188     N
H       0.6823   0.2315   0.0095     H
O       0.6825   0.3175   0.8175     O
H       0.6829    0.424   0.1878     H
H       0.6834   0.8631   0.5779     H
H       0.6841   0.3524   0.3512     H
C       0.6855    0.337   0.7157     C
N      0.68555  0.22565  0.13386     N
C       0.6856   0.5402   0.6103     C
C       0.6874   0.1481   0.7949     C
C       0.6874   0.3499   0.2631     C
H       0.6878   0.8171    0.576     H
N      0.68848   0.3198  0.90593     N
C       0.6891   0.3428   0.6707     C
N      0.69067  0.66678  0.84338     N
N       0.6907   0.3539   0.3268     N
C       0.6913   0.5082   0.8417     C
C       0.6916   0.5182   0.6492     C
H       0.6919   0.5943   0.4998     H
C       0.6936   0.3236   0.9456     C
C       0.6938   0.7041   0.8302     C
C       0.6942   0.8387   0.6311     C
O       0.6943   0.2331   0.7938     O
H       0.6944    0.523   0.0681     H
C       0.6945   0.4658   0.8368     C
C       0.6956   0.5736   0.5564     C
C       0.6962    0.129   0.1773     C
C       0.6962   0.3525   0.5879     C
C        0.698   0.8408   0.5875     C
O        0.699   0.3439   0.4018     O
C       0.7009    0.112    0.952     C
H        0.701   0.2542   0.2123     H
N      0.70137  0.40046  0.84623     N
C        0.702    0.362   0.5491     C
H       0.7022   0.0924   0.7811     H
C       0.7024   0.1674   0.1556     C
C       0.7041   0.8302   0.6938     C
H       0.7043   0.7955   0.8681     H
H       0.7045   0.1319   0.2043     H
H       0.7048   0.1305   0.0062     H
N      0.70499  0.57329  0.84603     N
C       0.7051   0.3126   0.6481     C
O       0.7062   0.3057   0.7331     O
C       0.7082   0.3181   0.6074     C
C       0.7098   0.4356   0.8603     C
H       0.7107   0.1598   0.7865     H
H       0.7115   0.1086    0.165     H
C       0.7116   0.3646   0.4645     C
C       0.7121   0.5928   0.5196     C
H       0.7123    0.799   0.7458     H
C       0.7128   0.4716   0.0907     C
Co     0.71312  0.34479  0.85915    Co
H       0.7135   0.2893   0.6598     H
H       0.7141   0.8448   0.7524     H
C       0.7145   0.8854   0.4616     C
Co      0.7149   0.2851   0.7851    Co
H       0.7154   0.9048   0.4052     H
C       0.7157   0.6855    0.337     C
C       0.7158   0.5555   0.5868     C
C       0.7169    0.514   0.0827     C
H       0.7178   0.0937   0.8993     H
H       0.7181    0.428     0.92     H
H       0.7185    0.528   0.1073     H
H       0.7189   0.2978   0.5924     H
H       0.7192   0.5169   0.6552     H
H       0.7195   0.3536    0.124     H
C       0.7206   0.1232    0.985     C
C       0.7207   0.4078   0.1004     C
H       0.7211   0.6142   0.7679     H
H       0.7211   0.6189   0.5258     H
C       0.7216   0.3606   0.4221     C
C       0.7216   0.5372   0.8407     C
C       0.7218   0.8235   0.7353     C
H        0.722   0.4685   0.3573     H
C       0.7227   0.8263   0.6585     C
C       0.7239   0.3632   0.2752     C
H       0.7242   0.3689   0.9711     H
C       0.7248   0.2239   0.1368     C
H       0.7253   0.8438   0.5806     H
N      0.72565  0.36614  0.31445     N
H        0.727   0.4444   0.3181     H
C       0.7281   0.1019   0.9234     C
H       0.7293   0.8665   0.5159     H
Co     0.73004  0.62553  0.85385    Co
C       0.7304   0.3428   0.9621     C
C       0.7312   0.8974   0.4264     C
H       0.7315   0.4905   0.3177     H
C       0.7318   0.4416   0.8992     C
O        0.732   0.6659   0.3592     O
H       0.7321   0.2789   0.1142     H
H       0.7325   0.7343   0.6409     H
H       0.7331   0.4692   0.9052     H
O       0.7331   0.7062   0.3057     O
H       0.7335   0.3538   0.0799     H
H       0.7335   0.7501   0.8227     H
H       0.7338   0.5774   0.5099     H
H       0.7341   0.6165   0.9793     H
H       0.7343   0.6409   0.7325     H
C        0.735   0.3732   0.5294     C
C       0.7352   0.3673   0.1048     C
C       0.7353   0.7218   0.8235     C
C        0.736   0.4669   0.3327     C
H       0.7368   0.7513   0.5981     H
C       0.7369   0.1874   0.1501     C
H       0.7378   0.6322   0.6134     H
C       0.7392   0.8748   0.4917     C
H       0.7401   0.3274   0.9838     H
H       0.7405   0.5185   0.0677     H
C       0.7417   0.3752   0.4892     C
C       0.7418   0.4413   0.0917     C
H       0.7419   0.5688   0.3969     H
C       0.7427   0.6211   0.7509     C
H       0.7438   0.6195   0.0452     H
H       0.7458   0.7123    0.799     H
H       0.7476   0.2859   0.3448     H
H       0.7487   0.4019   0.2368     H
C       0.7491   0.2573   0.1211     C
H       0.7498   0.6557   0.4419     H
H       0.7499   0.1773   0.2335     H
O       0.7499   0.3723  0.40686     O
O       0.7501   0.6277  0.90686     O
H       0.7501   0.8227   0.7335     H
H       0.7502   0.3443   0.9419     H
C       0.7509   0.7427   0.6211     C
H       0.7513   0.5981   0.7368     H
H       0.7524   0.7141   0.8448     H
H       0.7542   0.2877    0.299     H
H       0.7562   0.3805   0.5452     H
C       0.7573   0.3789   0.2509     C
H       0.7581   0.4312   0.8969     H
C       0.7582   0.5587   0.5917     C
C       0.7583   0.6248   0.9892     C
H       0.7595   0.4815   0.5677     H
H       0.7599   0.6726   0.4838     H
C       0.7608   0.1252   0.9917     C
H       0.7622   0.3678   0.1134     H
C       0.7631   0.8126   0.6501     C
H       0.7632   0.2487   0.0981     H
C        0.764   0.5331   0.8327     C
C       0.7647   0.2782   0.3235     C
C       0.7648   0.6327   0.6048     C
C        0.765   0.6268   0.0294     C
H       0.7657   0.3591   0.2325     H
H       0.7659   0.3835   0.4793     H
H       0.7662   0.4226   0.0099     H
H       0.7665   0.2499   0.3227     H
H       0.7665   0.6462   0.5799     H
O       0.7669   0.2938   0.8057     O
H       0.7669   0.5308   0.4052     H
H       0.7675   0.2657   0.1409     H
H       0.7679   0.7211   0.6142     H
O        0.768   0.3341   0.8592     O
C       0.7682   0.5584   0.3992     C
H       0.7685   0.5095   0.8177     H
C       0.7688   0.1026   0.9264     C
C       0.7696   0.6572   0.4621     C
Co     0.76996  0.37447  0.35385    Co
H       0.7707   0.1335   0.0159     H
C       0.7719   0.8981   0.4234     C
H        0.773   0.5556   0.8181     H
N      0.77435  0.63386  0.81445     N
H       0.7747   0.1562   0.0806     H
C       0.7752   0.7761   0.6368     C
H       0.7758   0.6311   0.4711     H
C       0.7761   0.6368   0.7752     C
C       0.7773   0.1737   0.1585     C
H        0.778   0.5315   0.8573     H
C       0.7782   0.1765   0.2353     C
C       0.7784   0.4628   0.3407     C
C       0.7784   0.6394   0.9221     C
H       0.7789   0.3811   0.0258     H
H       0.7789   0.3858   0.2679     H
C       0.7793   0.5922   0.6004     C
C       0.7794   0.8768    0.485     C
H       0.7805   0.6464    0.624     H
H       0.7808   0.4831   0.1552     H
H       0.7811   0.7022   0.0924     H
H       0.7815    0.472   0.6073     H
H       0.7819    0.572     0.42     H
H       0.7822   0.9063   0.3993     H
C       0.7831    0.486   0.5827     C
C       0.7842   0.4445   0.0868     C
C       0.7843   0.3145    0.837     C
H       0.7846   0.0952   0.9052     H
Co      0.7851   0.7149   0.2851    Co
C       0.7855   0.1146   0.9616     C
H       0.7859   0.1552   0.2524     H
H       0.7865   0.7107   0.1598     H
Co     0.78688  0.65521  0.35915    Co
C       0.7872   0.5284   0.5907     C
H       0.7877    0.201   0.2458     H
C       0.7879   0.4072   0.0196     C
C       0.7884   0.6354   0.9645     C
H       0.7885   0.8914    0.665     H
H       0.7893   0.8402   0.2865     H
C       0.7902   0.5644   0.3603     C
C       0.7918   0.6819   0.1074     C
O       0.7938   0.6943   0.2331     O
C       0.7949   0.6874   0.1481     C
N      0.79501  0.42671  0.34603     N
H       0.7952   0.8695   0.5062     H
H       0.7955   0.8681   0.7043     H
H       0.7957   0.2045   0.3681     H
C       0.7959   0.1698   0.1938     C
C       0.7976   0.8326   0.6556     C
H       0.7978   0.9076   0.2811     H
C        0.798    0.638   0.0491     C
N      0.79863  0.59954  0.34623     N
H        0.799   0.7458   0.7123     H
C       0.7991    0.888    0.452     C
O        0.801   0.6561   0.9018     O
C        0.802   0.1592   0.0875     C
C       0.8038   0.6475   0.0879     C
C       0.8038    0.871   0.6773     C
C       0.8044   0.4264   0.0564     C
C       0.8055   0.5342   0.3368     C
H       0.8056    0.477   0.5681     H
O       0.8057   0.7669   0.2938     O
C       0.8058   0.1613   0.1311     C
C       0.8062   0.2959   0.3302     C
C       0.8064   0.6764   0.4456     C
H       0.8081   0.4057   0.9998     H
C       0.8084   0.4818   0.1492     C
C       0.8087   0.4918   0.3417     C
N       0.8093   0.6461   0.8268     N
N      0.80933  0.33322  0.34338     N
C       0.8109   0.6572   0.1707     C
N      0.81152   0.6802  0.40593     N
H       0.8122   0.1829    0.076     H
C       0.8126   0.6501   0.7631     C
C       0.8126   0.8519   0.2949     C
C       0.8144   0.4598   0.1103     C
N      0.81445  0.77435  0.63386     N
C       0.8145    0.663   0.2157     C
H       0.8159   0.6476   0.8512     H
H       0.8166   0.1369   0.0779     H
H       0.8171    0.576   0.6878     H
O       0.8175   0.6825   0.3175     O
H       0.8177   0.7685   0.5095     H
N      0.81795  0.58422  0.60188     N
H       0.8181    0.773   0.5556     H
C       0.8181   0.8926   0.2918     C
H       0.8188   0.5081   0.1469     H
C       0.8195   0.6184   0.1117     C
N       0.8198  0.59407  0.31152     N
H        0.822   0.4681     0.17     H
C       0.8227   0.1962    0.371     C
H       0.8227   0.7335   0.7501     H
N      0.82329  0.54501  0.59603     N
H       0.8234   0.1688    0.378     H
C       0.8234   0.6224   0.1531     C
C       0.8235   0.7353   0.7218     C
C       0.8236   0.5544   0.3064     C
C       0.8236   0.6474   0.9812     C
H        0.826   0.4329   0.4378     H
C       0.8263   0.6585   0.7227     C
C       0.8266   0.6481   0.0219     C
N       0.8268   0.8093   0.6461     N
H       0.8274   0.5162   0.2599     H
C       0.8279   0.1106   0.9716     C
H       0.8279   0.3869   0.4334     H
H       0.8279    0.595      0.1     H
C       0.8293   0.3109   0.8428     C
H       0.8299   0.6038   0.5165     H
H         0.83    0.322   0.0319     H
C       0.8302   0.6938   0.7041     C
H       0.8306   0.4062   0.4753     H
H       0.8312    0.878   0.6766     H
H       0.8319   0.3341   0.8979     H
C       0.8326   0.6556   0.7976     C
C       0.8327    0.764   0.5331     C
N      0.83322  0.15662  0.19067     N
H       0.8341   0.6021   0.1681     H
O       0.8341   0.6408    0.232     O
N      0.83422  0.43205  0.35188     N
H        0.835   0.2115   0.3914     H
C       0.8368   0.6945   0.4658     C
C        0.837   0.7843   0.3145     C
C       0.8375   0.4092    0.448     C
C       0.8379   0.8975   0.4462     C
C       0.8387   0.6311   0.6942     C
N        0.839   0.1517  0.15028     N
H       0.8402   0.2865   0.7893     H
C       0.8407   0.7216   0.5372     C
C       0.8408   0.5875    0.698     C
C       0.8415   0.2773   0.3263     C
C       0.8417   0.6913   0.5082     C
C       0.8422   0.4707   0.3504     C
H       0.8424   0.9522   0.4689     H
C       0.8428   0.5379   0.2696     C
C       0.8428   0.8293   0.3109     C
O      0.84314   0.1223   0.9999     O
N      0.84338  0.69067  0.66678     N
H       0.8437   0.9678   0.3507     H
H       0.8438   0.5806   0.7253     H
O       0.8439   0.0982    0.301     O
N      0.84407   0.4302  0.06152     N
H       0.8443   0.5581   0.2498     H
C       0.8444   0.2024   0.3326     C
Co     0.84479  0.64085  0.28688    Co
H       0.8448   0.2808   0.0169     H
H       0.8448   0.6548   0.9654     H
H       0.8448   0.7524   0.7141     H
H        0.845   0.4221     0.85     H
H       0.8452   0.0346   0.3448     H
N      0.84603  0.70499  0.57329     N
N      0.84623  0.70137  0.40046     N
C       0.8469   0.3234   0.8776     C
H       0.8481   0.4987   0.4868     H
O       0.8482   0.0939    0.949     O
N       0.8483  0.65028    0.661     N
N      0.84954  0.45137  0.09623     N
N      0.84972    0.339   0.3483     N
C       0.8499   0.2369   0.3126     C
H         0.85    0.845   0.4221     H
C       0.8504   0.6578   0.5293     C
H       0.8507   0.6563   0.0322     H
C       0.8508   0.3084   0.0182     C
H       0.8512   0.8159   0.6476     H
N      0.85188  0.66578  0.56795     N
C       0.8519   0.2949   0.8126     C
C       0.8519   0.9781   0.3266     C
H       0.8521   0.4159   0.9181     H
H       0.8524   0.1488   0.3159     H
C       0.8525   0.9121   0.3038     C
C       0.8526   0.0188   0.3236     C
H       0.8531   0.3188   0.9919     H
H       0.8536    0.376   0.2805     H
H       0.8538   0.4201   0.2665     H
Co     0.85385  0.73004  0.62553    Co
N       0.8539   0.1732   0.3093     N
C       0.8548   0.6173   0.5148     C
H       0.8573    0.778   0.5315     H
C       0.8574   0.9319   0.4582     C
H       0.8586   0.9615    0.085     H
H       0.8591   0.2675   0.2343     H
Co     0.85915  0.71312  0.34479    Co
O       0.8592    0.768   0.3341     O
Co     0.85975    0.625  0.60975    Co
C       0.8603   0.7098   0.4356     C
C       0.8606   0.0779   0.2784     C
C       0.8617   0.8684   0.4305     C
C        0.862   0.9509    0.298     C
H       0.8631   0.5779   0.6834     H
C       0.8632   0.2248   0.2761     C
H       0.8634   0.6178   0.4878     H
H       0.8642   0.5289   0.5179     H
C       0.8646   0.0355   0.2884     C
N      0.86614  0.18555  0.27435     N
H       0.8665   0.5159   0.7293     H
C       0.8673   0.3952   0.2648     C
H       0.8678   0.3866   0.2378     H
H       0.8681   0.7043   0.7955     H
C       0.8684   0.4305   0.8617     C
C       0.8689   0.3058   0.3387     C
H       0.8689   0.5289   0.2758     H
H       0.8695   0.5062   0.7952     H
C        0.871   0.6773   0.8038     C
C       0.8711   0.5073   0.5009     C
H        0.872   0.9188   0.0734     H
O       0.8723  0.09314   0.2501     O
C       0.8724   0.4266   0.9031     C
C       0.8732   0.9706    0.265     C
H        0.874   0.6036   0.5305     H
Co     0.87447  0.14615  0.23004    Co
C       0.8748   0.4917   0.7392     C
Co       0.875  0.39025  0.35975    Co
C       0.8752   0.0108   0.2583     C
Co     0.87553  0.51996  0.60385    Co
H        0.876   0.2195   0.1464     H
C       0.8768    0.485   0.7794     C
C       0.8776   0.8469   0.3234     C
O       0.8777   0.4999  0.65686     O
H        0.878   0.6766   0.8312     H
C       0.8789   0.2491   0.2427     C
C        0.879   0.9462   0.0727     C
H       0.8805   0.9548   0.2438     H
C       0.8811   0.4113   0.4442     C
H       0.8811   0.4742   0.2211     H
C       0.8816   0.8883   0.3195     C
H       0.8819   0.9545   0.0457     H
H       0.8822   0.5122   0.3634     H
C       0.8827   0.4852   0.3548     C
H       0.8835   0.0207   0.2341     H
N      0.88386  0.47565  0.56445     N
C       0.8854   0.4616   0.7145     C
H       0.8858   0.2321   0.2211     H
H       0.8866   0.2622   0.1322     H
C       0.8868   0.4739   0.5252     C
H       0.8869   0.0666   0.1721     H
C        0.888    0.452   0.7991     C
C       0.8883   0.3195   0.8816     C
C       0.8894   0.4716   0.6721     C
C       0.8897   0.3144   0.0402     C
Co     0.89025  0.14025    0.125    Co
O       0.8908   0.4159    0.982     O
Co     0.89085  0.40521  0.03688    Co
H       0.8909   0.5157   0.4825     H
H       0.8914    0.665   0.7885     H
C       0.8926   0.2918   0.8181     C
H       0.8927   0.2185    0.972     H
C       0.8952   0.2352   0.1327     C
N       0.8961   0.4407   0.5768     N
Co     0.89615  0.12447  0.01996    Co
H       0.8962   0.4835   0.3299     H
H       0.8964   0.4695    0.374     H
H       0.8969   0.7581   0.4312     H
C       0.8974   0.4264   0.7312     C
C       0.8975   0.4462   0.8379     C
H       0.8976   0.4341   0.6012     H
H       0.8979   0.8319   0.3341     H
C       0.8981   0.4234   0.7719     C
C       0.8981   0.9374   0.4551     C
N      0.89812  0.18205  0.08422     N
H       0.8988   0.1024   0.9341     H
C       0.8992   0.7318   0.4416     C
H       0.8993   0.7178   0.0937     H
C       0.8996   0.2207   0.0922     C
H          0.9   0.3279    0.905     H
C       0.9001   0.4374   0.5131     C
N      0.90028   0.4017    0.411     N
N      0.90046  0.65377  0.29863     N
N       0.9017    0.089  0.09972     N
O       0.9018    0.801   0.6561     O
H       0.9019   0.2632   0.2513     H
C       0.9031   0.8724   0.4266     C
N      0.90377  0.34954  0.04863     N
N      0.90397  0.17671  0.04501     N
H       0.9048   0.4052   0.7154     H
H        0.905      0.9   0.3279     H
H       0.9052   0.0359   0.9976     H
H       0.9052   0.7331   0.4692     H
H       0.9052   0.7846   0.0952     H
Co     0.90521  0.46312  0.10915    Co
C       0.9056   0.4174   0.5476     C
H       0.9057   0.5002   0.1919     H
N      0.90593  0.68848   0.3198     N
O       0.9061    0.449   0.6518     O
H       0.9062   0.0247   0.1694     H
H       0.9063   0.3993   0.7822     H
N      0.90662  0.08322  0.05933     N
O      0.90686   0.7501   0.6277     O
C       0.9072   0.4391   0.9207     C
C       0.9072   0.4804   0.2121     C
H       0.9076   0.2811   0.7978     H
C       0.9078   0.3996   0.2793     C
C       0.9083   0.2418   0.0587     C
C       0.9085   0.4237   0.4727     C
C       0.9092    0.052   0.1625     C
C       0.9093   0.2128   0.0284     C
H       0.9098   0.9607   0.4635     H
N        0.911  0.59972   0.5983     N
C       0.9113   0.0558   0.1189     C
C       0.9121   0.3038   0.8525     C
C       0.9125    0.302   0.3408     C
C        0.913   0.4355   0.9657     C
C       0.9132   0.2842   0.0555     C
H        0.915   0.3586   0.5385     H
N      0.91578  0.39812  0.31795     N
O       0.9159    0.518   0.1092     O
H       0.9159   0.5819   0.1479     H
N      0.91678  0.55933  0.59338     N
C       0.9173   0.2169    0.986     C
C       0.9174   0.9524   0.0944     C
H       0.9181   0.8521   0.4159     H
H       0.9188   0.0734    0.872     H
H       0.9194   0.2747   0.3438     H
C       0.9198   0.0459   0.0562     C
H         0.92   0.7181    0.428     H
H       0.9201   0.2335   0.1462     H
C       0.9207   0.9072   0.4391     C
H       0.9221   0.3166   0.3631     H
H       0.9221     0.65    0.155     H
C       0.9221   0.7784   0.6394     C
H       0.9226   0.4901   0.2338     H
N       0.9232   0.1039   0.9407     N
C       0.9234   0.7281   0.1019     C
C       0.9237   0.0273   0.0915     C
H        0.924   0.3122   0.3171     H
C       0.9264   0.4436   0.1956     C
C       0.9264   0.7688   0.1026     C
C       0.9265   0.0282   0.0147     C
H       0.9266    0.372   0.5812     H
C       0.9266   0.5969   0.1276     C
N      0.92671  0.15397  0.20499     N
C       0.9273    0.379   0.5538     C
H       0.9273   0.9999   0.0165     H
H        0.928     0.58   0.2819     H
N       0.9302  0.43848  0.15593     N
C       0.9305   0.6383   0.1316     C
H       0.9312   0.6031   0.2419     H
H       0.9319   0.1944    0.977     H
C       0.9319   0.4582   0.8574     C
N      0.93205  0.14812  0.16578     N
H       0.9323   0.2405   0.9815     H
O       0.9325   0.4325   0.0675     O
H       0.9329   0.0622    0.174     H
H       0.9334   0.6721   0.6131     H
H       0.9341   0.8988   0.1024     H
C       0.9355   0.5343    0.087     C
N      0.93555  0.11614  0.97565     N
C       0.9356   0.6397   0.2902     C
C       0.9374   0.4551   0.8981     C
C       0.9374   0.9869   0.0999     C
H       0.9378    0.674   0.5671     H
N      0.93848  0.34407   0.0698     N
C       0.9391   0.5793   0.0928     C
N      0.94067  0.40662  0.41678     N
N       0.9407   0.9232   0.1039     N
C       0.9413   0.4083   0.2582     C
C       0.9416   0.6008   0.2682     C
H       0.9419   0.7502   0.3443     H
C       0.9436   0.3044   0.0736     C
C       0.9438   0.4198   0.4541     C
C       0.9442   0.6189   0.5887     C
O       0.9443   0.4562   0.9831     O
H       0.9444   0.1819    0.273     H
C       0.9445   0.4132   0.2158     C
C       0.9456   0.6936   0.3236     C
C       0.9462   0.0727    0.879     C
C       0.9462   0.6621   0.1025     C
C        0.948   0.6625   0.5908     C
O        0.949   0.8482   0.0939     O
C       0.9509    0.298    0.862     C
H        0.951   0.0377   0.0042     H
N      0.95137  0.40377  0.15046     N
C        0.952   0.7009    0.112     C
H       0.9522   0.4689   0.8424     H
C       0.9524   0.0944   0.9174     C
C       0.9541   0.5562   0.5802     C
H       0.9543   0.3819   0.5455     H
H       0.9545   0.0457   0.8819     H
H       0.9548   0.2438   0.8805     H
N      0.95499  0.40397  0.32329     N
C       0.9551   0.6019   0.0626     C
O       0.9562   0.5169   0.0557     O
C       0.9582   0.6426   0.0681     C
C       0.9598   0.3897   0.1856     C
H       0.9607   0.4635   0.9098     H
H       0.9615    0.085   0.8586     H
C       0.9616   0.7855   0.1146     C
C       0.9621   0.7304   0.3428     C
H       0.9623   0.5042    0.549     H
C       0.9628   0.1593   0.2216     C
Co     0.96312  0.39085  0.09479    Co
H       0.9635   0.5902   0.0393     H
H       0.9641   0.4976   0.5948     H
C       0.9645   0.7884   0.6354     C
Co      0.9649   0.4649   0.0351    Co
H       0.9654   0.8448   0.6548     H
C       0.9657    0.913   0.4355     C
C       0.9658   0.6632   0.3055     C
C       0.9669   0.1673    0.264     C
H       0.9678   0.3507   0.8437     H
H       0.9681     0.33    0.178     H
H       0.9685   0.1427    0.278     H
H       0.9689   0.6576   0.0478     H
H       0.9692   0.5948   0.2669     H
H       0.9695    0.126   0.1036     H
C       0.9706    0.265   0.8732     C
C       0.9707   0.1496   0.1578     C
H       0.9711   0.4821   0.3642     H
H       0.9711   0.7242   0.3689     H
C       0.9716   0.4093   0.2872     C
C       0.9716   0.8279   0.1106     C
C       0.9718   0.5147   0.5735     C
H        0.972   0.8927   0.2185     H
C       0.9727   0.5915   0.5763     C
C       0.9739   0.9748   0.1132     C
H       0.9742   0.2789   0.1189     H
C       0.9748   0.1132   0.9739     C
H       0.9753   0.6694   0.5938     H
N      0.97565  0.93555  0.11614     N
H        0.977   0.9319   0.1944     H
C       0.9781   0.3266   0.8519     C
H       0.9793   0.7341   0.6165     H
Co     0.98004  0.39615  0.37553    Co
C       0.9804   0.2879   0.0928     C
C       0.9812   0.8236   0.6474     C
H       0.9815   0.9323   0.2405     H
C       0.9818   0.3508   0.1916     C
O        0.982   0.8908   0.4159     O
H       0.9821   0.1358   0.0289     H
H       0.9825   0.6091   0.4843     H
H       0.9831   0.3448   0.2192     H
O       0.9831   0.9443   0.4562     O
H       0.9835   0.1701   0.1038     H
H       0.9835   0.4273   0.5001     H
H       0.9838   0.7401   0.3274     H
H       0.9841   0.2707   0.3665     H
H       0.9843   0.5175   0.3909     H
C        0.985   0.7206   0.1232     C
C       0.9852   0.1452   0.1173     C
C       0.9853   0.4265   0.4718     C
C        0.986   0.9173   0.2169     C
H       0.9868   0.6519   0.5013     H
C       0.9869   0.0999   0.9374     C
H       0.9878   0.6366   0.3822     H
C       0.9892   0.7583   0.6248     C
H       0.9901   0.2662   0.0774     H
H       0.9905   0.1823   0.2685     H
C       0.9917   0.7608   0.1252     C
C       0.9918   0.1583   0.1913     C
H       0.9919   0.8531   0.3188     H
C       0.9927   0.4991   0.3711     C
H       0.9938   0.2048   0.3695     H
H       0.9958    0.451   0.4623     H
H       0.9976   0.9052   0.0359     H
H       0.9987   0.0132   0.1519     H
C       0.9991   0.1289   0.0073     C
H       0.9998   0.8081   0.4057     H
H       0.9999   0.0165   0.9273     H
O       0.9999  0.84314   0.1223     O
