data_I
_chemical_name_common  '/home/zhangsd/repos/MofS-CGCNN/ML/data/WS24/clean_cifs/PUGGOP'
_cell_length_a 11.63840
_cell_length_b 21.05200
_cell_length_c 24.24700
_cell_angle_alpha 114.95900
_cell_angle_beta  102.95000
_cell_angle_gamma 92.40600
_space_group_name_H-M_alt      'P 1'


loop_
_space_group_symop_operation_xyz
  'x, y, z' 

loop_
_atom_site_label
_atom_site_fract_x
_atom_site_fract_y
_atom_site_fract_z
_atom_site_type_symbol
H       0.0207   0.2207   0.1949     H
H       0.0208   0.2401   0.9809     H
O       0.0304   0.5042   0.2839     O
C       0.0313   0.1453   0.9123     C
O       0.0418   0.9824   0.1987     O
H       0.0449   0.8617   0.1136     H
H        0.052   0.2787   0.1369     H
C       0.0614   0.0256   0.8338     C
O       0.0623   0.1468  0.25585     O
C       0.0709   0.2065   0.9685     C
H       0.0879   0.5537   0.4063     H
C       0.0927   0.2217   0.1844     C
C        0.105   0.0944   0.8947     C
C       0.1107   0.2553   0.1495     C
H       0.1195   0.4137   0.3224     H
Mn     0.12736   0.8773  0.75459    Mn
Mn     0.12852  0.05723  0.29299    Mn
O        0.132   0.9814  0.82238     O
H       0.1428   0.1195   0.4883     H
H       0.1497   0.8461   0.9196     H
C       0.1498   0.5906   0.4195     C
H       0.1544   0.6319    0.512     H
O       0.1545   0.3423  0.08512     O
S       0.1569  0.53234  0.29755     S
C       0.1614   0.1515   0.2437     C
H       0.1756   0.8393   0.0128     H
O       0.1771   0.1183  0.38986     O
H       0.1797   0.1481   0.5932     H
C       0.1836   0.1883   0.2047     C
C       0.1843   0.2174   0.0056     C
C       0.1894   0.6375   0.4831     C
O         0.19   0.8404  0.82249     O
O        0.195   0.5613     0.26     O
C       0.1952   0.4141   0.3158     C
C       0.1988   0.5971   0.3761     C
C       0.2063   0.1543   0.5173     C
C       0.2128   0.8254   0.9324     C
C       0.2169   0.2548   0.1324     C
C       0.2199   0.1066    0.932     C
C       0.2269    0.821   0.9874     C
C       0.2292    0.171   0.5797     C
O       0.2304   0.7791   0.0918     O
S      0.23579  0.29147    0.081     S
H       0.2367   0.3337   0.3336     H
C       0.2436   0.4664   0.2991     C
O        0.244  0.12251  0.26355     O
O       0.2476   0.2213   0.7163     O
O        0.256   0.9908  0.29612     O
C       0.2596   0.1665   0.4271     C
C       0.2605    0.166   0.9863     C
H       0.2645   0.9194   0.1414     H
C       0.2646   0.3664   0.3214     C
H       0.2701   0.0732   0.9192     H
C       0.2728   0.8075   0.8336     C
C       0.2788   0.1898   0.4969     C
C        0.282   0.6929   0.5033     C
C       0.2857   0.1874   0.1874     C
O       0.2869   0.7289  0.60996     O
C       0.2896    0.653    0.396     C
C       0.2898      0.8   0.8941     C
H       0.2962   0.8754   0.2882     H
H       0.2977   0.0921   0.6786     H
C       0.3035   0.2213   0.1521     C
O       0.3062   0.8908  0.74408     O
C       0.3215   0.7879   0.0054     C
C       0.3232   0.2206   0.6229     C
H       0.3232   0.6587   0.3667     H
H       0.3254   0.0258   0.8046     H
C       0.3305   0.7003   0.4592     C
O       0.3309   0.2015   0.4131     O
C       0.3326   0.7395   0.5725     C
Mn     0.33556  0.76431  0.70703    Mn
H       0.3379   0.1733   0.0112     H
O       0.3422   0.7839  0.80114     O
H       0.3444   0.1637   0.1995     H
S      0.34519  0.78946  0.08094     S
C       0.3471   0.9305   0.1519     C
C       0.3483   0.4651   0.2891     C
H       0.3554   0.0364   0.1992     H
S       0.3593  0.23494  0.70252     S
O       0.3609   0.3124  0.09177     O
C       0.3683   0.0063    0.315     C
C       0.3722   0.2419   0.5417     C
C        0.374   0.3641   0.3098     C
H       0.3754   0.2216   0.1414     H
C       0.3785    0.882   0.2947     C
H       0.3795    0.499   0.2791     H
C         0.38    0.099   0.6848     C
C       0.3807   0.7665   0.9122     C
H       0.3915   0.7376   0.4721     H
C       0.3933   0.2573   0.6036     C
C       0.3962   0.7616   0.9683     C
H       0.3989   0.7803   0.2776     H
C       0.4017   0.0005   0.1875     C
H       0.4026   0.0012   0.6671     H
C       0.4079   0.0372   0.8153     C
O        0.408   0.2695  0.33598     O
H       0.4135   0.1412   0.8633     H
C       0.4148   0.8774   0.1319     C
C       0.4149   0.4122   0.2934     C
C       0.4177   0.9075    0.757     C
O       0.4178   0.7888   0.5871     O
Mn     0.42036  0.17038  0.34079    Mn
H       0.4206   0.2665   0.5292     H
O        0.428   0.0662  0.33573     O
O       0.4305   0.7428  0.08515     O
H        0.431   0.7473   0.8865     H
O       0.4342   0.3019   0.7408     O
C       0.4354   0.9456   0.3092     C
C       0.4406   0.8245   0.2889     C
C       0.4433    0.046   0.6793     C
C       0.4443    0.167   0.7007     C
C       0.4461   0.3091   0.3153     C
H       0.4554   0.2927   0.6332     H
H       0.4584   0.7402   0.9809     H
C       0.4601   0.1055   0.8506     C
O       0.4601   0.6953  0.70373     O
C       0.4777   0.9832   0.7946     C
O       0.4813  0.85923  0.73621     O
H       0.4888   0.4105   0.2845     H
H       0.5112   0.5895   0.7155     H
O       0.5187  0.14077  0.26379     O
C       0.5223   0.0168   0.2054     C
O       0.5399   0.3047  0.29627     O
C       0.5399   0.8945   0.1494     C
H       0.5416   0.2598   0.0191     H
H       0.5446   0.7073   0.3668     H
C       0.5539   0.6909   0.6847     C
C       0.5557    0.833   0.2993     C
C       0.5567    0.954   0.3207     C
C       0.5594   0.1755   0.7111     C
C       0.5646   0.0544   0.6908     C
O       0.5658   0.6981   0.2592     O
H        0.569   0.2527   0.1135     H
O       0.5695   0.2572  0.91485     O
O        0.572   0.9338  0.66427     O
H       0.5794   0.7335   0.4708     H
Mn     0.57964  0.82962  0.65921    Mn
O       0.5822   0.2112   0.4129     O
C       0.5823   0.0925    0.243     C
C       0.5851   0.5878   0.7066     C
C       0.5852   0.1226   0.8681     C
H       0.5865   0.8588   0.1367     H
O        0.592   0.7305  0.66402     O
C       0.5921   0.9628   0.1847     C
H       0.5974   0.9988   0.3329     H
C       0.5983   0.9995   0.8125     C
H       0.6011   0.2197   0.7224     H
C       0.6038   0.2384   0.0317     C
C       0.6067   0.7427   0.3964     C
H       0.6085   0.2624   0.5279     H
C       0.6193   0.2335   0.0878     C
C         0.62    0.901   0.3152     C
H       0.6205    0.501   0.7209     H
C       0.6215    0.118   0.7053     C
H       0.6246   0.7784   0.8586     H
C        0.626   0.6359   0.6902     C
C       0.6278   0.7581   0.4583     C
C       0.6317   0.9937    0.685     C
O       0.6391   0.6876  0.90823     O
S       0.6407  0.76506  0.29748     S
H       0.6446   0.9636   0.8008     H
C       0.6517   0.5349   0.7109     C
C       0.6529   0.0695   0.8481     C
S      0.65481  0.21054  0.91906     S
H       0.6556   0.8363   0.8005     H
O       0.6578   0.2161  0.19886     O
H       0.6621   0.8267   0.9888     H
Mn     0.66444  0.23569  0.29297    Mn
C       0.6674   0.2605   0.4275     C
O       0.6691   0.7985   0.5869     O
C       0.6695   0.2997   0.5408     C
H       0.6746   0.9742   0.1954     H
H       0.6768   0.3413   0.6333     H
C       0.6768   0.7794   0.3771     C
C       0.6785   0.2121   0.9946     C
O       0.6938   0.1092  0.25592     O
C       0.6965   0.7787   0.8479     C
H       0.7023   0.9079   0.3214     H
H       0.7038   0.1246   0.7118     H
C       0.7102      0.2   0.1059     C
C       0.7104    0.347    0.604     C
O       0.7131   0.2711  0.39004     O
C       0.7143   0.8126   0.8126     C
C        0.718   0.3071   0.4967     C
C       0.7212   0.8102   0.5031     C
C       0.7272   0.1925   0.1664     C
H       0.7299   0.9268   0.0808     H
C       0.7354   0.6336   0.6786     C
H       0.7355   0.0806   0.8586     H
C       0.7395    0.834   0.0137     C
C       0.7404   0.8335   0.5729     C
O        0.744   0.0092  0.70388     O
O       0.7524   0.7787   0.2837     O
O        0.756  0.87749  0.73645     O
C       0.7564   0.5336   0.7009     C
H       0.7633   0.6663   0.6664     H
S      0.76421  0.70853    0.919     S
O       0.7696   0.2209   0.9082     O
C       0.7708    0.829   0.4203     C
C       0.7731    0.179   0.0126     C
C       0.7801   0.8934    0.068     C
C       0.7831   0.7452   0.8676     C
C       0.7872   0.1746   0.0676     C
C       0.7937   0.8457   0.4827     C
C       0.8012   0.4029   0.6239     C
C       0.8048   0.5859   0.6842     C
O        0.805   0.4387     0.74     O
O         0.81   0.1596  0.17751     O
C       0.8106   0.3625   0.5169     C
C       0.8157   0.7826   0.9944     C
C       0.8164   0.8117   0.7953     C
H       0.8203   0.8519   0.4068     H
O       0.8229   0.8817  0.61014     O
H       0.8244   0.1607   0.9872     H
C       0.8386   0.8485   0.7563     C
S       0.8431  0.46766  0.70245     S
O       0.8455   0.6577  0.91488     O
H       0.8456   0.3681    0.488     H
C       0.8502   0.4094   0.5805     C
H       0.8503   0.1539   0.0804     H
H       0.8572   0.8805   0.5117     H
O        0.868   0.0186  0.17762     O
Mn     0.87148  0.94277  0.70701    Mn
Mn     0.87264   0.1227  0.24541    Mn
H       0.8805   0.5863   0.6776     H
C       0.8893   0.7447   0.8505     C
C        0.895   0.9056   0.1053     C
C       0.9073   0.7783   0.8156     C
H       0.9121   0.4463   0.5937     H
C       0.9291   0.7935   0.0315     C
O       0.9377   0.8532  0.74415     O
C       0.9386   0.9744   0.1662     C
H        0.948   0.7213   0.8631     H
H       0.9551   0.1383   0.8864     H
O       0.9582   0.0176   0.8013     O
C       0.9687   0.8547   0.0877     C
O       0.9696   0.4958   0.7161     O
H       0.9792   0.7599   0.0191     H
H       0.9793   0.7793   0.8051     H
