data_I
_chemical_name_common  '/home/zhangsd/repos/MofS-CGCNN/ML/data/WS24/clean_cifs/PURNIB'
_cell_length_a 24.58000
_cell_length_b 10.44540
_cell_length_c 22.47770
_cell_angle_alpha 90.00000
_cell_angle_beta  98.32200
_cell_angle_gamma 90.00000
_space_group_name_H-M_alt      'P 1'


loop_
_space_group_symop_operation_xyz
  'x, y, z' 

loop_
_atom_site_label
_atom_site_fract_x
_atom_site_fract_y
_atom_site_fract_z
_atom_site_type_symbol
Si         0.0   0.1791     0.25    Si
K          0.0   0.3238     0.75     K
K          0.0   0.6762     0.25     K
Si         0.0   0.8209     0.75    Si
O       0.0079   0.0322   0.4166     O
O       0.0079   0.9678   0.9166     O
O       0.0154   0.2826   0.3916     O
O       0.0154   0.7174   0.8916     O
N       0.0159   0.3241   0.5426     N
N       0.0159   0.6759   0.0426     N
O        0.018   0.0893   0.1961     O
O        0.018   0.9107   0.6961     O
O       0.0186   0.4613   0.1854     O
O       0.0186   0.5387   0.6854     O
O       0.0266   0.1488   0.6649     O
O       0.0266   0.8512   0.1649     O
H       0.0334   0.1392   0.5226     H
H       0.0334   0.8608   0.0226     H
H         0.04   0.4947   0.0686     H
H         0.04   0.5053   0.5686     H
W      0.04182  0.06244   0.8569     W
W      0.04182  0.93756   0.3569     W
W       0.0448  0.16486  0.10821     W
W       0.0448  0.83514  0.60821     W
C       0.0467   0.2199   0.5346     C
C       0.0467   0.7801   0.0346     C
C       0.0504   0.4224     0.56     C
C       0.0504   0.5776     0.06     C
W      0.05147  0.41431  0.35373     W
W      0.05147  0.58569  0.85373     W
O       0.0519    0.269   0.2776     O
O       0.0519    0.731   0.7776     O
O       0.0617    0.472   0.9107     O
O       0.0617    0.528   0.4107     O
O       0.0623   0.1088   0.7818     O
O       0.0623   0.8912   0.2818     O
O       0.0632   0.2041    0.039     O
O       0.0632   0.7959    0.539     O
Cu     0.06445  0.32816  0.97013    Cu
Cu     0.06445  0.67184  0.47013    Cu
O       0.0774   0.1739   0.9035     O
O       0.0774   0.8261   0.4035     O
O       0.0836   0.4961   0.7932     O
O       0.0836   0.5039   0.2932     O
O       0.0876   0.2824   0.1574     O
O       0.0876   0.7176   0.6574     O
Co      0.0896  0.05924  0.70824    Co
W       0.0896  0.94076  0.20824     W
W      0.09393  0.41184  0.21967     W
Co     0.09393  0.58816  0.71967    Co
O        0.095   0.0709   0.3597     O
O        0.095   0.9291   0.8597     O
O       0.0955   0.0339   0.1355     O
O       0.0955   0.9661   0.6355     O
H       0.0998   0.0456   0.4842     H
H       0.0998   0.9544   0.9842     H
N       0.1003   0.2539    0.547     N
N       0.1003   0.7461    0.047     N
C       0.1025    0.379   0.5628     C
C       0.1025    0.621   0.0628     C
O       0.1183   0.3206   0.3738     O
O       0.1183   0.6794   0.8738     O
O       0.1301   0.0704   0.2547     O
O       0.1301   0.9296   0.7547     O
H       0.1344   0.4268   0.5736     H
H       0.1344   0.5732   0.0736     H
C       0.1355   0.0658   0.5011     C
C       0.1355   0.9342   0.0011     C
W      0.13888   0.1869  0.32105     W
W      0.13888   0.8131  0.82105     W
N       0.1422   0.3602   0.9964     N
N       0.1422   0.6398   0.4964     N
C       0.1447   0.1719   0.5382     C
C       0.1447   0.8281   0.0382     C
O       0.1532   0.3184   0.2662     O
O       0.1532   0.6816   0.7662     O
H       0.1613   0.2685   0.0782     H
H       0.1613   0.7315   0.5782     H
H       0.1638   0.4777   0.9297     H
H       0.1638   0.5223   0.4297     H
H       0.1713   0.0816   0.9645     H
H       0.1713   0.9184   0.4645     H
C       0.1731   0.3219   0.0495     C
C       0.1731   0.6781   0.5495     C
C       0.1745   0.4385   0.9667     C
C       0.1745   0.5615   0.4667     C
C       0.1779   0.0098   0.9889     C
C       0.1779   0.9902   0.4889     C
C       0.1979    0.201    0.564     C
C       0.1979    0.799    0.064     C
H       0.2045   0.2711   0.5895     H
H       0.2045   0.7289   0.0895     H
C       0.2244   0.3766   0.0526     C
C       0.2244   0.6234   0.5526     C
H       0.2245   0.3525   0.4302     H
H       0.2245   0.6475   0.9302     H
N       0.2252   0.4487   0.0015     N
N       0.2252   0.5513   0.5015     N
C       0.2311   0.0229   0.5136     C
C       0.2311   0.9771   0.0136     C
C       0.2399   0.1278   0.5521     C
C       0.2399   0.8722   0.0521     C
H       0.2467   0.1333   0.9162     H
H       0.2467   0.8667   0.4162     H
H       0.2533   0.3667   0.0838     H
H       0.2533   0.6333   0.5838     H
C       0.2601   0.3722   0.4479     C
C       0.2601   0.6278   0.9479     C
C       0.2689   0.4771   0.4864     C
C       0.2689   0.5229   0.9864     C
N       0.2748   0.0513   0.9985     N
N       0.2748   0.9487   0.4985     N
H       0.2755   0.1475   0.5698     H
H       0.2755   0.8525   0.0698     H
C       0.2756   0.1234   0.9474     C
C       0.2756   0.8766   0.4474     C
H       0.2955   0.2289   0.4105     H
H       0.2955   0.7711   0.9105     H
C       0.3021    0.299    0.436     C
C       0.3021    0.701    0.936     C
C       0.3221   0.4902   0.0111     C
C       0.3221   0.5098   0.5111     C
C       0.3255   0.0615   0.0333     C
C       0.3255   0.9385   0.5333     C
C       0.3269   0.1781   0.9505     C
C       0.3269   0.8219   0.4505     C
H       0.3287   0.4184   0.0355     H
H       0.3287   0.5816   0.5355     H
H       0.3362   0.0223   0.0703     H
H       0.3362   0.9777   0.5703     H
H       0.3387   0.2315   0.9218     H
H       0.3387   0.7685   0.4218     H
O       0.3468   0.1816   0.7338     O
O       0.3468   0.8184   0.2338     O
C       0.3553   0.3281   0.4618     C
C       0.3553   0.6719   0.9618     C
N       0.3578   0.1398   0.0036     N
N       0.3578   0.8602   0.5036     N
W      0.36112   0.3131  0.67895     W
W      0.36112   0.6869  0.17895     W
C       0.3645   0.4342   0.4989     C
C       0.3645   0.5658   0.9989     C
H       0.3656   0.0732   0.4264     H
H       0.3656   0.9268   0.9264     H
O       0.3699   0.4296   0.7453     O
O       0.3699   0.5704   0.2453     O
O       0.3817   0.1794   0.6262     O
O       0.3817   0.8206   0.1262     O
C       0.3975    0.121   0.4372     C
C       0.3975    0.879   0.9372     C
N       0.3997   0.2461    0.453     N
N       0.3997   0.7539    0.953     N
H       0.4002   0.4544   0.5158     H
H       0.4002   0.5456   0.0158     H
O       0.4045   0.4661   0.8645     O
O       0.4045   0.5339   0.3645     O
O        0.405   0.4291   0.6403     O
O        0.405   0.5709   0.1403     O
W      0.40607  0.08816  0.78033     W
Co     0.40607  0.91184  0.28033    Co
Co      0.4104  0.44076  0.29176    Co
W       0.4104  0.55924  0.79176     W
O       0.4124   0.2176   0.8426     O
O       0.4124   0.7824   0.3426     O
O       0.4164   0.0039   0.2068     O
O       0.4164   0.9961   0.7068     O
O       0.4226   0.3261   0.0965     O
O       0.4226   0.6739   0.5965     O
Cu     0.43555  0.17184  0.02987    Cu
Cu     0.43555  0.82816  0.52987    Cu
O       0.4368   0.2959    0.961     O
O       0.4368   0.7041    0.461     O
O       0.4377   0.3912   0.2182     O
O       0.4377   0.6088   0.7182     O
O       0.4383    0.028   0.0893     O
O       0.4383    0.972   0.5893     O
O       0.4481    0.231   0.7224     O
O       0.4481    0.769   0.2224     O
W      0.44853  0.08569  0.64627     W
W      0.44853  0.91431  0.14627     W
C       0.4496   0.0776     0.44     C
C       0.4496   0.9224     0.94     C
C       0.4533   0.2801   0.4654     C
C       0.4533   0.7199   0.9654     C
W       0.4552  0.33514  0.89179     W
W       0.4552  0.66486  0.39179     W
W      0.45818  0.43756   0.1431     W
W      0.45818  0.56244   0.6431     W
H         0.46   0.0053   0.9314     H
H         0.46   0.9947   0.4314     H
H       0.4666   0.3608   0.4774     H
H       0.4666   0.6392   0.9774     H
O       0.4734   0.3512   0.3351     O
O       0.4734   0.6488   0.8351     O
O       0.4814   0.0387   0.8146     O
O       0.4814   0.9613   0.3146     O
O        0.482   0.4107   0.8039     O
O        0.482   0.5893   0.3039     O
N       0.4841   0.1759   0.4574     N
N       0.4841   0.8241   0.9574     N
O       0.4846   0.2174   0.6084     O
O       0.4846   0.7826   0.1084     O
O       0.4921   0.4678   0.5834     O
O       0.4921   0.5322   0.0834     O
K          0.5   0.1762     0.25     K
Si         0.5   0.3209     0.75    Si
Si         0.5   0.6791     0.25    Si
K          0.5   0.8238     0.75     K
O       0.5079   0.4678   0.9166     O
O       0.5079   0.5322   0.4166     O
O       0.5154   0.2174   0.8916     O
O       0.5154   0.7826   0.3916     O
N       0.5159   0.1759   0.0426     N
N       0.5159   0.8241   0.5426     N
O        0.518   0.4107   0.6961     O
O        0.518   0.5893   0.1961     O
O       0.5186   0.0387   0.6854     O
O       0.5186   0.9613   0.1854     O
O       0.5266   0.3512   0.1649     O
O       0.5266   0.6488   0.6649     O
H       0.5334   0.3608   0.0226     H
H       0.5334   0.6392   0.5226     H
H         0.54   0.0053   0.5686     H
H         0.54   0.9947   0.0686     H
W      0.54182  0.43756   0.3569     W
W      0.54182  0.56244   0.8569     W
W       0.5448  0.33514  0.60821     W
W       0.5448  0.66486  0.10821     W
C       0.5467   0.2801   0.0346     C
C       0.5467   0.7199   0.5346     C
C       0.5504   0.0776     0.06     C
C       0.5504   0.9224     0.56     C
W      0.55147  0.08569  0.85373     W
W      0.55147  0.91431  0.35373     W
O       0.5519    0.231   0.7776     O
O       0.5519    0.769   0.2776     O
O       0.5617    0.028   0.4107     O
O       0.5617    0.972   0.9107     O
O       0.5623   0.3912   0.2818     O
O       0.5623   0.6088   0.7818     O
O       0.5632   0.2959    0.539     O
O       0.5632   0.7041    0.039     O
Cu     0.56445  0.17184  0.47013    Cu
Cu     0.56445  0.82816  0.97013    Cu
O       0.5774   0.3261   0.4035     O
O       0.5774   0.6739   0.9035     O
O       0.5836   0.0039   0.2932     O
O       0.5836   0.9961   0.7932     O
O       0.5876   0.2176   0.6574     O
O       0.5876   0.7824   0.1574     O
W       0.5896  0.44076  0.20824     W
Co      0.5896  0.55924  0.70824    Co
Co     0.59393  0.08816  0.71967    Co
W      0.59393  0.91184  0.21967     W
O        0.595   0.4291   0.8597     O
O        0.595   0.5709   0.3597     O
O       0.5955   0.4661   0.6355     O
O       0.5955   0.5339   0.1355     O
H       0.5998   0.4544   0.9842     H
H       0.5998   0.5456   0.4842     H
N       0.6003   0.2461    0.047     N
N       0.6003   0.7539    0.547     N
C       0.6025    0.121   0.0628     C
C       0.6025    0.879   0.5628     C
O       0.6183   0.1794   0.8738     O
O       0.6183   0.8206   0.3738     O
O       0.6301   0.4296   0.7547     O
O       0.6301   0.5704   0.2547     O
H       0.6344   0.0732   0.0736     H
H       0.6344   0.9268   0.5736     H
C       0.6355   0.4342   0.0011     C
C       0.6355   0.5658   0.5011     C
W      0.63888   0.3131  0.82105     W
W      0.63888   0.6869  0.32105     W
N       0.6422   0.1398   0.4964     N
N       0.6422   0.8602   0.9964     N
C       0.6447   0.3281   0.0382     C
C       0.6447   0.6719   0.5382     C
O       0.6532   0.1816   0.7662     O
O       0.6532   0.8184   0.2662     O
H       0.6613   0.2315   0.5782     H
H       0.6613   0.7685   0.0782     H
H       0.6638   0.0223   0.4297     H
H       0.6638   0.9777   0.9297     H
H       0.6713   0.4184   0.4645     H
H       0.6713   0.5816   0.9645     H
C       0.6731   0.1781   0.5495     C
C       0.6731   0.8219   0.0495     C
C       0.6745   0.0615   0.4667     C
C       0.6745   0.9385   0.9667     C
C       0.6779   0.4902   0.4889     C
C       0.6779   0.5098   0.9889     C
C       0.6979    0.299    0.064     C
C       0.6979    0.701    0.564     C
H       0.7045   0.2289   0.0895     H
H       0.7045   0.7711   0.5895     H
C       0.7244   0.1234   0.5526     C
C       0.7244   0.8766   0.0526     C
H       0.7245   0.1475   0.9302     H
H       0.7245   0.8525   0.4302     H
N       0.7252   0.0513   0.5015     N
N       0.7252   0.9487   0.0015     N
C       0.7311   0.4771   0.0136     C
C       0.7311   0.5229   0.5136     C
C       0.7399   0.3722   0.0521     C
C       0.7399   0.6278   0.5521     C
H       0.7467   0.3667   0.4162     H
H       0.7467   0.6333   0.9162     H
H       0.7533   0.1333   0.5838     H
H       0.7533   0.8667   0.0838     H
C       0.7601   0.1278   0.9479     C
C       0.7601   0.8722   0.4479     C
C       0.7689   0.0229   0.9864     C
C       0.7689   0.9771   0.4864     C
N       0.7748   0.4487   0.4985     N
N       0.7748   0.5513   0.9985     N
H       0.7755   0.3525   0.0698     H
H       0.7755   0.6475   0.5698     H
C       0.7756   0.3766   0.4474     C
C       0.7756   0.6234   0.9474     C
H       0.7955   0.2711   0.9105     H
H       0.7955   0.7289   0.4105     H
C       0.8021    0.201    0.936     C
C       0.8021    0.799    0.436     C
C       0.8221   0.0098   0.5111     C
C       0.8221   0.9902   0.0111     C
C       0.8255   0.4385   0.5333     C
C       0.8255   0.5615   0.0333     C
C       0.8269   0.3219   0.4505     C
C       0.8269   0.6781   0.9505     C
H       0.8287   0.0816   0.5355     H
H       0.8287   0.9184   0.0355     H
H       0.8362   0.4777   0.5703     H
H       0.8362   0.5223   0.0703     H
H       0.8387   0.2685   0.4218     H
H       0.8387   0.7315   0.9218     H
O       0.8468   0.3184   0.2338     O
O       0.8468   0.6816   0.7338     O
C       0.8553   0.1719   0.9618     C
C       0.8553   0.8281   0.4618     C
N       0.8578   0.3602   0.5036     N
N       0.8578   0.6398   0.0036     N
W      0.86112   0.1869  0.17895     W
W      0.86112   0.8131  0.67895     W
C       0.8645   0.0658   0.9989     C
C       0.8645   0.9342   0.4989     C
H       0.8656   0.4268   0.9264     H
H       0.8656   0.5732   0.4264     H
O       0.8699   0.0704   0.2453     O
O       0.8699   0.9296   0.7453     O
O       0.8817   0.3206   0.1262     O
O       0.8817   0.6794   0.6262     O
C       0.8975    0.379   0.9372     C
C       0.8975    0.621   0.4372     C
N       0.8997   0.2539    0.953     N
N       0.8997   0.7461    0.453     N
H       0.9002   0.0456   0.0158     H
H       0.9002   0.9544   0.5158     H
O       0.9045   0.0339   0.3645     O
O       0.9045   0.9661   0.8645     O
O        0.905   0.0709   0.1403     O
O        0.905   0.9291   0.6403     O
Co     0.90607  0.41184  0.28033    Co
W      0.90607  0.58816  0.78033     W
W       0.9104  0.05924  0.79176     W
Co      0.9104  0.94076  0.29176    Co
O       0.9124   0.2824   0.3426     O
O       0.9124   0.7176   0.8426     O
O       0.9164   0.4961   0.7068     O
O       0.9164   0.5039   0.2068     O
O       0.9226   0.1739   0.5965     O
O       0.9226   0.8261   0.0965     O
Cu     0.93555  0.32816  0.52987    Cu
Cu     0.93555  0.67184  0.02987    Cu
O       0.9368   0.2041    0.461     O
O       0.9368   0.7959    0.961     O
O       0.9377   0.1088   0.7182     O
O       0.9377   0.8912   0.2182     O
O       0.9383    0.472   0.5893     O
O       0.9383    0.528   0.0893     O
O       0.9481    0.269   0.2224     O
O       0.9481    0.731   0.7224     O
W      0.94853  0.41431  0.14627     W
W      0.94853  0.58569  0.64627     W
C       0.9496   0.4224     0.94     C
C       0.9496   0.5776     0.44     C
C       0.9533   0.2199   0.9654     C
C       0.9533   0.7801   0.4654     C
W       0.9552  0.16486  0.39179     W
W       0.9552  0.83514  0.89179     W
W      0.95818  0.06244   0.6431     W
W      0.95818  0.93756   0.1431     W
H         0.96   0.4947   0.4314     H
H         0.96   0.5053   0.9314     H
H       0.9666   0.1392   0.9774     H
H       0.9666   0.8608   0.4774     H
O       0.9734   0.1488   0.8351     O
O       0.9734   0.8512   0.3351     O
O       0.9814   0.4613   0.3146     O
O       0.9814   0.5387   0.8146     O
O        0.982   0.0893   0.3039     O
O        0.982   0.9107   0.8039     O
N       0.9841   0.3241   0.9574     N
N       0.9841   0.6759   0.4574     N
O       0.9846   0.2826   0.1084     O
O       0.9846   0.7174   0.6084     O
O       0.9921   0.0322   0.0834     O
O       0.9921   0.9678   0.5834     O
