data_I
_chemical_name_common  '/home/zhangsd/repos/MofS-CGCNN/ML/data/WS24/clean_cifs/PUWCAL'
_cell_length_a 10.82120
_cell_length_b 10.82120
_cell_length_c 10.82120
_cell_angle_alpha 90.00000
_cell_angle_beta  90.00000
_cell_angle_gamma 90.00000
_space_group_name_H-M_alt      'P 1'


loop_
_space_group_symop_operation_xyz
  'x, y, z' 

loop_
_atom_site_label
_atom_site_fract_x
_atom_site_fract_y
_atom_site_fract_z
_atom_site_type_symbol
O        0.022    0.107    0.246     O
O        0.022    0.246    0.107     O
O        0.022    0.254    0.393     O
O        0.022    0.393    0.254     O
C       0.0286   0.0286   0.0286     C
C       0.0286   0.4714   0.4714     C
C       0.0361   0.1321   0.1321     C
C       0.0361   0.3679   0.3679     C
C      0.08885  0.08885    0.166     C
C      0.08885    0.166  0.08885     C
C      0.08885    0.334  0.41115     C
C      0.08885  0.41115    0.334     C
O        0.107    0.022    0.246     O
O        0.107    0.246    0.022     O
O        0.107    0.254    0.478     O
O        0.107    0.478    0.254     O
C       0.1321   0.0361   0.1321     C
C       0.1321   0.1321   0.0361     C
C       0.1321   0.3679   0.4639     C
C       0.1321   0.4639   0.3679     C
O       0.1476   0.1476   0.1476     O
O       0.1476   0.3524   0.3524     O
C        0.166  0.08885  0.08885     C
C        0.166  0.41115  0.41115     C
O        0.246    0.022    0.107     O
O        0.246    0.107    0.022     O
O        0.246    0.393    0.478     O
O        0.246    0.478    0.393     O
Zn        0.25     0.25     0.25    Zn
O        0.254    0.022    0.393     O
O        0.254    0.107    0.478     O
O        0.254    0.393    0.022     O
O        0.254    0.478    0.107     O
C        0.334  0.08885  0.41115     C
C        0.334  0.41115  0.08885     C
O       0.3524   0.1476   0.3524     O
O       0.3524   0.3524   0.1476     O
C       0.3679   0.0361   0.3679     C
C       0.3679   0.1321   0.4639     C
C       0.3679   0.3679   0.0361     C
C       0.3679   0.4639   0.1321     C
O        0.393    0.022    0.254     O
O        0.393    0.246    0.478     O
O        0.393    0.254    0.022     O
O        0.393    0.478    0.246     O
C      0.41115  0.08885    0.334     C
C      0.41115    0.166  0.41115     C
C      0.41115    0.334  0.08885     C
C      0.41115  0.41115    0.166     C
C       0.4639   0.1321   0.3679     C
C       0.4639   0.3679   0.1321     C
C       0.4714   0.0286   0.4714     C
C       0.4714   0.4714   0.0286     C
O        0.478    0.107    0.254     O
O        0.478    0.246    0.393     O
O        0.478    0.254    0.107     O
O        0.478    0.393    0.246     O
O        0.522    0.607    0.754     O
O        0.522    0.746    0.893     O
O        0.522    0.754    0.607     O
O        0.522    0.893    0.746     O
C       0.5286   0.5286   0.9714     C
C       0.5286   0.9714   0.5286     C
C       0.5361   0.6321   0.8679     C
C       0.5361   0.8679   0.6321     C
C      0.58885  0.58885    0.834     C
C      0.58885    0.666  0.91115     C
C      0.58885    0.834  0.58885     C
C      0.58885  0.91115    0.666     C
O        0.607    0.522    0.754     O
O        0.607    0.746    0.978     O
O        0.607    0.754    0.522     O
O        0.607    0.978    0.746     O
C       0.6321   0.5361   0.8679     C
C       0.6321   0.6321   0.9639     C
C       0.6321   0.8679   0.5361     C
C       0.6321   0.9639   0.6321     C
O       0.6476   0.6476   0.8524     O
O       0.6476   0.8524   0.6476     O
C        0.666  0.58885  0.91115     C
C        0.666  0.91115  0.58885     C
O        0.746    0.522    0.893     O
O        0.746    0.607    0.978     O
O        0.746    0.893    0.522     O
O        0.746    0.978    0.607     O
Zn        0.75     0.75     0.75    Zn
O        0.754    0.522    0.607     O
O        0.754    0.607    0.522     O
O        0.754    0.893    0.978     O
O        0.754    0.978    0.893     O
C        0.834  0.58885  0.58885     C
C        0.834  0.91115  0.91115     C
O       0.8524   0.6476   0.6476     O
O       0.8524   0.8524   0.8524     O
C       0.8679   0.5361   0.6321     C
C       0.8679   0.6321   0.5361     C
C       0.8679   0.8679   0.9639     C
C       0.8679   0.9639   0.8679     C
O        0.893    0.522    0.746     O
O        0.893    0.746    0.522     O
O        0.893    0.754    0.978     O
O        0.893    0.978    0.754     O
C      0.91115  0.58885    0.666     C
C      0.91115    0.666  0.58885     C
C      0.91115    0.834  0.91115     C
C      0.91115  0.91115    0.834     C
C       0.9639   0.6321   0.6321     C
C       0.9639   0.8679   0.8679     C
C       0.9714   0.5286   0.5286     C
C       0.9714   0.9714   0.9714     C
O        0.978    0.607    0.746     O
O        0.978    0.746    0.607     O
O        0.978    0.754    0.893     O
O        0.978    0.893    0.754     O
