data_I
_chemical_name_common  '/home/zhangsd/repos/MofS-CGCNN/ML/data/WS24/clean_cifs/QERZUI'
_cell_length_a  5.03280
_cell_length_b 11.17600
_cell_length_c 12.67970
_cell_angle_alpha 91.84770
_cell_angle_beta  101.44700
_cell_angle_gamma 80.64990
_space_group_name_H-M_alt      'P 1'


loop_
_space_group_symop_operation_xyz
  'x, y, z' 

loop_
_atom_site_label
_atom_site_fract_x
_atom_site_fract_y
_atom_site_fract_z
_atom_site_type_symbol
O      0.01994   0.0975  0.20288     O
H       0.0343   0.4673   0.6646     H
C      0.03563   0.8915  0.63506     C
N      0.06562   0.8129  0.89004     N
H       0.0966   0.3573    0.511     H
C       0.1083   0.4051   0.9368     C
H       0.1295   0.0899   0.5446     H
C      0.14403   0.4923  0.62126     C
H       0.1705   0.4106    0.873     H
C       0.1715   0.9051   0.0632     C
Cu     0.17244  0.69775    0.773    Cu
N      0.17558   0.3129  0.10996     N
C      0.18126   0.4252  0.52892     C
C      0.23615   0.8232   0.9843     C
O      0.25052   0.9201  0.68464     O
C      0.25185   0.3232   0.0157     C
N      0.25922   0.5905  0.64964     N
O      0.26903    0.303  0.34086     O
H       0.2975   0.9106    0.127     H
C      0.34667   0.4616  0.46454     C
H       0.3697   0.9673   0.3354     H
Cu     0.39944  0.19775    0.227    Cu
C      0.40057   0.3915  0.36494     C
H       0.4058    0.773   0.9974     H
H       0.4084    0.273   0.0026     H
C      0.42262    0.625  0.58844     C
O      0.46036   0.6042  0.87852     O
C       0.4709   0.5636   0.4962     C
H       0.5063   0.6927    0.609     H
C      0.52277   0.9923  0.37874     C
O      0.56588   0.4201  0.31536     O
H        0.567   0.0144   0.9332     H
O      0.58184   0.1042  0.12148     O
H       0.5849   0.5899   0.4554     H
H       0.5856   0.8573    0.489     H
N      0.60958   0.0905  0.35036     N
H       0.6338   0.5144   0.0668     H
C      0.65234   0.9252  0.47108     C
H       0.7015   0.8775   0.8074     H
C       0.7078   0.5676    0.869     C
C      0.73967   0.9668  0.94794     C
C      0.79173   0.4668  0.05206     C
O      0.81706   0.5975  0.79712     O
C      0.82151   0.8839  0.87262     C
C      0.83418    0.125  0.41156     C
C       0.8388   0.0676    0.131     C
C      0.87069   0.4789  0.95378     C
C      0.88213   0.9616  0.53546     C
H       0.8941   0.3775   0.1926     H
H       0.8973   0.1927    0.391     H
C      0.91691   0.9789  0.04622     C
O      0.92817    0.803  0.65914     O
C      0.94889   0.3839  0.12738     C
C       0.9747   0.0636   0.5038     C
