data_I
_chemical_name_common  '/home/zhangsd/repos/MofS-CGCNN/ML/data/WS24/clean_cifs/QITHAC'
_cell_length_a 28.47100
_cell_length_b 28.47100
_cell_length_c 28.47100
_cell_angle_alpha 90.00000
_cell_angle_beta  90.00000
_cell_angle_gamma 90.00000
_space_group_name_H-M_alt      'P 1'


loop_
_space_group_symop_operation_xyz
  'x, y, z' 

loop_
_atom_site_label
_atom_site_fract_x
_atom_site_fract_y
_atom_site_fract_z
_atom_site_type_symbol
C       0.0005   0.4418   0.7329     C
C       0.0005   0.5582   0.7671     C
C       0.0017   0.1704   0.6518     C
C       0.0017   0.8296   0.8482     C
H        0.002     0.39     0.52     H
H        0.002     0.61     0.98     H
C       0.0035   0.4442   0.5694     C
C       0.0035   0.5558   0.9306     C
C       0.0056   0.4358   0.7643     C
C       0.0056   0.5642   0.7357     C
H        0.006    0.325    0.637     H
H        0.006    0.675    0.863     H
H        0.007    0.335     0.62     H
H        0.007    0.665     0.88     H
C       0.0075   0.0677    0.781     C
C       0.0075   0.9323    0.719     C
H        0.008     0.33    0.347     H
H        0.008     0.67    0.153     H
H        0.012    0.357    0.343     H
H        0.012    0.643    0.157     H
C       0.0143   0.1858   0.7444     C
C       0.0143   0.8142   0.7556     C
C       0.0163   0.4184   0.5301     C
C       0.0163   0.5816   0.9699     C
C       0.0171   0.3082   0.7495     C
C       0.0171   0.6918   0.7505     C
H        0.018    0.422    0.831     H
H        0.018    0.578    0.669     H
H         0.02    0.191    0.777     H
H         0.02    0.498     0.61     H
H         0.02    0.502     0.89     H
H         0.02    0.809    0.723     H
H        0.024    0.414    0.847     H
H        0.024    0.586    0.653     H
H        0.025     0.35     0.29     H
H        0.025     0.65     0.21     H
H        0.026    0.318    0.296     H
H        0.026    0.682    0.204     H
H        0.027    0.059     0.77     H
H        0.027    0.941     0.73     H
C       0.0299   0.4201   0.8146     C
C       0.0299   0.5799   0.6854     C
C       0.0301   0.4837   0.5816     C
C       0.0301   0.5163   0.9184     C
H        0.032    0.309    0.326     H
H        0.032    0.691    0.174     H
C       0.0332   0.3424   0.3213     C
C       0.0332   0.6576   0.1787     C
C       0.0373   0.0702    0.598     C
C       0.0373   0.9298    0.902     C
H        0.038    0.299    0.774     H
H        0.038    0.701    0.726     H
H        0.039    0.066    0.792     H
H        0.039    0.934    0.708     H
H         0.04      0.4    0.275     H
H         0.04      0.6    0.225     H
H        0.043    0.329    0.337     H
O        0.043   0.3704   0.4473     O
O        0.043   0.6296   0.0527     O
H        0.043    0.671    0.163     H
N       0.0456   0.1669   0.6652     N
N       0.0456   0.8331   0.8348     N
H        0.046    0.353    0.328     H
H        0.046    0.432    0.276     H
H        0.046    0.568    0.224     H
H        0.046    0.647    0.172     H
H        0.049    0.288    0.476     H
H        0.049    0.712    0.024     H
H         0.05    0.301    0.754     H
H         0.05    0.699    0.746     H
C        0.051   0.1749    0.718     C
H        0.051      0.3    0.496     H
H        0.051      0.7    0.004     H
C        0.051   0.8251    0.782     C
O       0.0527    0.043   0.6296     O
O       0.0527    0.957   0.8704     O
O       0.0547   0.1093   0.5884     O
O       0.0547   0.8907   0.9116     O
H        0.055    0.408    0.344     H
H        0.055    0.592    0.156     H
C       0.0558   0.4306   0.5035     C
C       0.0558   0.5694   0.9965     C
C       0.0582   0.2671   0.5005     C
C       0.0582   0.7329   0.9995     C
H        0.059     0.23    0.473     H
H        0.059    0.282    0.924     H
H        0.059    0.718    0.576     H
H        0.059     0.77    0.027     H
C       0.0642   0.2357   0.5056     C
C       0.0642   0.7643   0.9944     C
N        0.067   0.4182    0.798     N
H        0.067     0.43    0.343     H
H        0.067     0.57    0.157     H
N        0.067   0.5818    0.702     N
H        0.068    0.276    0.954     H
H        0.068    0.724    0.546     H
C       0.0694   0.4965   0.5558     C
C       0.0694   0.5035   0.9442     C
H         0.07    0.343    0.933     H
H         0.07    0.657    0.567     H
C       0.0702    0.402   0.4627     C
C       0.0702    0.598   0.0373     C
C       0.0713   0.4076   0.2832     C
C       0.0713   0.5924   0.2168     C
C       0.0739   0.2466   0.5808     C
C       0.0739   0.7534   0.9192     C
H        0.075    0.256    0.613     H
H        0.075    0.744    0.887     H
C       0.0751    0.199    0.532     C
C       0.0751    0.801    0.968     C
C       0.0756   0.3379   0.3398     C
C       0.0756   0.6621   0.1602     C
H        0.076    0.441    0.282     H
H        0.076    0.559    0.218     H
O       0.0773   0.3418   0.8648     O
O       0.0773   0.6582   0.6352     O
H        0.078    0.169    0.518     H
H        0.078    0.397    0.296     H
H        0.078    0.603    0.204     H
H        0.078    0.831    0.982     H
H        0.079    0.293    0.913     H
H        0.079    0.707    0.587     H
H         0.08    0.258    0.903     H
H         0.08    0.742    0.597     H
C       0.0803   0.3917   0.3294     C
C       0.0803   0.6083   0.1706     C
C       0.0808   0.4261   0.7534     C
C       0.0808   0.5739   0.7466     C
H        0.081    0.172    0.732     H
H        0.081    0.828    0.768     H
C       0.0816   0.4699   0.5163     C
C       0.0816   0.5301   0.9837     C
N       0.0818    0.202    0.567     N
N       0.0818    0.798    0.933     N
H        0.085    0.257     0.63     H
H        0.085    0.743     0.87     H
H        0.086    0.153    0.524     H
H        0.086    0.847    0.976     H
H        0.087    0.421    0.293     H
H        0.087    0.579    0.207     H
C       0.0879   0.3256   0.9102     C
C       0.0879   0.6744   0.5898     C
O       0.0884   0.4453   0.8907     O
O       0.0884   0.5547   0.6093     O
O       0.0918   0.3273   0.3852     O
O       0.0918   0.6727   0.1148     O
H        0.092    0.344    0.945     H
H        0.092    0.656    0.555     H
C       0.0924   0.2832   0.9287     C
C       0.0924   0.7168   0.5713     C
H        0.093     0.32    0.317     H
H        0.093    0.393    0.262     H
H        0.093    0.607    0.238     H
H        0.093     0.68    0.183     H
H        0.094    0.342    0.305     H
H        0.094    0.658    0.195     H
H        0.097    0.164    0.726     H
H        0.097     0.42    0.258     H
H        0.097     0.58    0.242     H
H        0.097    0.836    0.774     H
Ni      0.0973    0.149   0.6311    Ni
Ni      0.0973    0.851   0.8689    Ni
C        0.098   0.4627   0.9298     C
C        0.098   0.5373   0.5702     C
H          0.1    0.275     0.96     H
H          0.1    0.725     0.54     H
Ni       0.101   0.1527   0.6189    Ni
Ni       0.101   0.8473   0.8811    Ni
H        0.103    0.296    0.922     H
H        0.103    0.704    0.578     H
H        0.107    0.262    0.907     H
H        0.107    0.738    0.593     H
O       0.1093   0.4116   0.4453     O
O       0.1093   0.5884   0.0547     O
H         0.11     0.48    0.502     H
H         0.11     0.52    0.998     H
H        0.113    0.425    0.744     H
H        0.113    0.575    0.756     H
O       0.1148   0.0918   0.6727     O
O       0.1148   0.9082   0.8273     O
Ni      0.1189    0.399   0.8473    Ni
Ni      0.1189    0.601   0.6527    Ni
H         0.12    0.493    0.665     H
H         0.12    0.507    0.835     H
O       0.1204    0.293   0.8027     O
O       0.1204    0.707   0.6973     O
O        0.124   0.4086   0.3462     O
O        0.124   0.5914   0.1538     O
O       0.1296   0.4473    0.957     O
O       0.1296   0.5527    0.543     O
H         0.13    0.415    0.743     H
H         0.13    0.585    0.757     H
Ni      0.1311   0.4027    0.851    Ni
Ni      0.1311   0.5973    0.649    Ni
H        0.137    0.494    0.675     H
H        0.137    0.506    0.825     H
H         0.14    0.252     0.73     H
H         0.14    0.748     0.77     H
O       0.1407   0.1953   0.6616     O
O       0.1407   0.8047   0.8384     O
C       0.1417   0.3303   0.9206     C
C       0.1417   0.6697   0.5794     C
H        0.143    0.343    0.988     H
H        0.143    0.657    0.512     H
H        0.147    0.328    0.954     H
H        0.147    0.672    0.546     H
Ni       0.149   0.3689   0.4027    Ni
Ni       0.149   0.6311   0.0973    Ni
H         0.15     0.29    0.975     H
H         0.15     0.71    0.525     H
H        0.151    0.057    0.593     H
H        0.151    0.943    0.907     H
C       0.1518   0.4983   0.8296     C
C       0.1518   0.5017   0.6704     C
H        0.152    0.069    0.573     H
C        0.152   0.3202   0.7873     C
C        0.152   0.6798   0.7127     C
H        0.152    0.931    0.927     H
Ni      0.1527   0.3811    0.399    Ni
Ni      0.1527   0.6189    0.101    Ni
H        0.153    0.008     0.67     H
H        0.153    0.476    0.414     H
H        0.153    0.524    0.086     H
H        0.153    0.992     0.83     H
O       0.1538    0.124   0.5914     O
O       0.1538    0.876   0.9086     O
H        0.157    0.012    0.643     H
H        0.157    0.307    0.901     H
H        0.157    0.693    0.599     H
H        0.157    0.988    0.857     H
C       0.1576   0.3213   0.9668     C
C       0.1576   0.6787   0.5332     C
O       0.1586    0.374   0.9038     O
O       0.1586    0.626   0.5962     O
C       0.1602   0.0756   0.6621     C
C       0.1602   0.9244   0.8379     C
O       0.1616   0.3593   0.8047     O
O       0.1616   0.6407   0.6953     O
H        0.162    0.035    0.717     H
H        0.162    0.965    0.783     H
H        0.163    0.043    0.671     H
H        0.163    0.957    0.829     H
H        0.165     0.38    0.507     H
H        0.165     0.62    0.993     H
N       0.1652   0.4544   0.8331     N
N       0.1652   0.5456   0.6669     N
N       0.1669   0.3348   0.4544     N
N       0.1669   0.6652   0.0456     N
C       0.1684   0.2663   0.7199     C
C       0.1684   0.7337   0.7801     C
H        0.169    0.482    0.422     H
H        0.169    0.518    0.078     H
H         0.17    0.347    0.992     H
H         0.17    0.653    0.508     H
C       0.1704   0.3482   0.4983     C
C       0.1704   0.6518   0.0017     C
C       0.1706   0.0803   0.6083     C
C       0.1706   0.9197   0.8917     C
C       0.1707   0.0327   0.6848     C
C       0.1707   0.9673   0.8152     C
H        0.171    0.337    0.957     H
H        0.171    0.663    0.543     H
H        0.172    0.046    0.647     H
H        0.172    0.954    0.853     H
H        0.175    0.363    0.506     H
H        0.175    0.434    0.685     H
H        0.175    0.566    0.815     H
H        0.175    0.637    0.994     H
H        0.177    0.319    0.902     H
H        0.177    0.681    0.598     H
C       0.1787   0.0332   0.6576     C
C       0.1787   0.9668   0.8424     C
C       0.1798   0.2127    0.652     C
C       0.1798   0.7873    0.848     C
C       0.1806   0.3058   0.7465     C
C       0.1806   0.6942   0.7535     C
H        0.181    0.098    0.677     H
H        0.181    0.902    0.823     H
H        0.182    0.296    0.974     H
H        0.182    0.704    0.526     H
C       0.1823   0.3143   0.5343     C
C       0.1823   0.6857   0.9657     C
H        0.184    0.425    0.565     H
H        0.184    0.575    0.935     H
C       0.1848   0.3293   0.9673     C
C       0.1848   0.6707   0.5327     C
H        0.185    0.325    0.566     H
H        0.185    0.675    0.934     H
C       0.1854   0.4701   0.4201     C
C       0.1854   0.5299   0.0799     C
C       0.1857   0.4657   0.6823     C
C       0.1857   0.5343   0.8177     C
H        0.188     0.45    0.559     H
H        0.188     0.55    0.941     H
H        0.191      0.3    0.562     H
H        0.191      0.7    0.938     H
H        0.193    0.099    0.657     H
H        0.193    0.901    0.843     H
C       0.1942   0.2535   0.6806     C
C       0.1942   0.7465   0.8194     C
O       0.1953   0.3384   0.3593     O
O       0.1953   0.6616   0.1407     O
O       0.1973   0.3796    0.293     O
O       0.1973   0.6204    0.207     O
H          0.2    0.438    0.691     H
H          0.2    0.562    0.809     H
N        0.202    0.433   0.4182     N
N        0.202    0.567   0.0818     N
H        0.204    0.026    0.682     H
H        0.204    0.078    0.603     H
H        0.204    0.922    0.897     H
H        0.204    0.974    0.818     H
H        0.207    0.087    0.579     H
O        0.207   0.1973   0.6204     O
O        0.207   0.8027   0.8796     O
H        0.207    0.913    0.921     H
H        0.208    0.461    0.066     H
H        0.208    0.539    0.434     H
H         0.21    0.025     0.65     H
H         0.21    0.975     0.85     H
H        0.211    0.458    0.184     H
H        0.211    0.542    0.316     H
C       0.2127    0.348   0.3202     C
C       0.2127    0.652   0.1798     C
H        0.215    0.088    0.533     H
H        0.215    0.912    0.967     H
C       0.2157   0.4357   0.5677     C
C       0.2157   0.5643   0.9323     C
C       0.2168   0.0713   0.5924     C
C       0.2168   0.9287   0.9076     C
H        0.217    0.338    0.965     H
H        0.217    0.662    0.535     H
C       0.2173   0.0793   0.5652     C
C       0.2173   0.9207   0.9348     C
C        0.218    0.449   0.8251     C
C        0.218    0.551   0.6749     C
C        0.219   0.4925   0.0677     C
C        0.219   0.5075   0.4323     C
C       0.2199   0.3316   0.7337     C
C       0.2199   0.6684   0.7663     C
H        0.223     0.48    0.191     H
H        0.223     0.52    0.309     H
H        0.224    0.046    0.568     H
H        0.224    0.954    0.932     H
H        0.225     0.04      0.6     H
H        0.225     0.96      0.9     H
H        0.226    0.403    0.836     H
H        0.226    0.462    0.299     H
H        0.226    0.538    0.201     H
H        0.226    0.597    0.664     H
H         0.23     0.36    0.748     H
H         0.23    0.473    0.059     H
H         0.23    0.527    0.441     H
H         0.23     0.64    0.752     H
H        0.232    0.419    0.828     H
H        0.232    0.581    0.672     H
C       0.2337   0.2801   0.6684     C
C       0.2337   0.7199   0.8316     C
H        0.238    0.093    0.607     H
H        0.238    0.907    0.893     H
H        0.242    0.097     0.58     H
H        0.242    0.903     0.92     H
C       0.2425    0.469   0.1823     C
C       0.2425    0.531   0.3177     C
H        0.243     0.37    0.585     H
H        0.243     0.63    0.915     H
H        0.244    0.387    0.575     H
H        0.244    0.613    0.925     H
C       0.2444   0.4857   0.8142     C
C       0.2444   0.5143   0.6858     C
H        0.246     0.45    0.301     H
H        0.246     0.55    0.199     H
C       0.2465   0.3194   0.6942     C
C       0.2465   0.6806   0.8058     C
C       0.2466   0.4192   0.4261     C
C       0.2466   0.5808   0.0739     C
H        0.248     0.27     0.64     H
H        0.248     0.73     0.86     H
C       0.2505   0.4829   0.3082     C
C       0.2505   0.5171   0.1918     C
C       0.2517   0.4018   0.5796     C
C       0.2517   0.5982   0.9204     C
H        0.252     0.27     0.36     H
H        0.252     0.73     0.14     H
C       0.2535   0.3194   0.3058     C
C       0.2535   0.6806   0.1942     C
H        0.256    0.387    0.425     H
H        0.256    0.613    0.075     H
H        0.257     0.37    0.415     H
H        0.257     0.63    0.085     H
H        0.258    0.097     0.42     H
H        0.258    0.903     0.08     H
H        0.262    0.093    0.393     H
H        0.262    0.907    0.107     H
C       0.2643   0.4944   0.5642     C
C       0.2643   0.5056   0.9358     C
C       0.2663   0.2801   0.3316     C
C       0.2663   0.7199   0.1684     C
C       0.2671   0.4995   0.4418     C
C       0.2671   0.5005   0.0582     C
H        0.268    0.419    0.172     H
H        0.268    0.581    0.328     H
H         0.27     0.36    0.252     H
H         0.27    0.473    0.941     H
H         0.27    0.527    0.559     H
H         0.27     0.64    0.248     H
H        0.274    0.403    0.164     H
H        0.274    0.597    0.336     H
H        0.275     0.04      0.4     H
H        0.275     0.96      0.1     H
H        0.276    0.046    0.432     H
H        0.276    0.954    0.068     H
H        0.277     0.48    0.809     H
H        0.277     0.52    0.691     H
C       0.2799   0.4354   0.1701     C
C       0.2799   0.5646   0.3299     C
C       0.2801   0.3316   0.2663     C
C       0.2801   0.6684   0.2337     C
H        0.282    0.076    0.441     H
H        0.282    0.924    0.059     H
C       0.2832   0.0713   0.4076     C
C       0.2832   0.9287   0.0924     C
C       0.2873    0.348   0.6798     C
C       0.2873    0.652   0.8202     C
H        0.288    0.476    0.049     H
H        0.288    0.524    0.451     H
H         0.29    0.025     0.35     H
H         0.29    0.975     0.15     H
H        0.293    0.087    0.421     H
O        0.293   0.1973   0.3796     O
O        0.293   0.8027   0.1204     O
H        0.293    0.913    0.079     H
N       0.2956   0.4152   0.5831     N
N       0.2956   0.5848   0.9169     N
H        0.296    0.026    0.318     H
H        0.296    0.078    0.397     H
H        0.296    0.922    0.103     H
H        0.296    0.974    0.182     H
H        0.299    0.226    0.462     H
H        0.299    0.774    0.038     H
H          0.3    0.496    0.051     H
H          0.3    0.504    0.449     H
H        0.301    0.246     0.45     H
C        0.301    0.468   0.5751     C
C        0.301    0.532   0.9249     C
H        0.301    0.754     0.05     H
O       0.3027   0.3796    0.707     O
O       0.3027   0.6204    0.793     O
O       0.3047   0.3384   0.6407     O
O       0.3047   0.6616   0.8593     O
H        0.305    0.094    0.342     H
H        0.305    0.906    0.158     H
C       0.3058   0.2535   0.3194     C
C       0.3058   0.7465   0.1806     C
C       0.3082   0.2505   0.4829     C
C       0.3082   0.7495   0.0171     C
H        0.309    0.223     0.52     H
H        0.309    0.326    0.032     H
H        0.309    0.674    0.468     H
H        0.309    0.777     0.98     H
C       0.3142   0.2556   0.5143     C
C       0.3142   0.7444   0.9857     C
H        0.317    0.093     0.32     H
N        0.317    0.452   0.1682     N
N        0.317    0.548   0.3318     N
H        0.317    0.907     0.18     H
H        0.318    0.296    0.026     H
H        0.318    0.704    0.474     H
C       0.3194   0.3058   0.2535     C
C       0.3194   0.6942   0.2465     C
H         0.32    0.317    0.093     H
H         0.32    0.683    0.407     H
C       0.3202   0.2127    0.348     C
C       0.3202   0.7873    0.152     C
C       0.3213   0.0332   0.3424     C
C       0.3213   0.9668   0.1576     C
C       0.3239   0.3308   0.5034     C
C       0.3239   0.6692   0.9966     C
H        0.325    0.363    0.494     H
H        0.325    0.637    0.006     H
C       0.3251    0.282    0.551     C
C       0.3251    0.718    0.949     C
C       0.3256   0.0898   0.4121     C
C       0.3256   0.9102   0.0879     C
H        0.326    0.032    0.309     H
H        0.326    0.968    0.191     H
O       0.3273   0.3852   0.0918     O
O       0.3273   0.6148   0.4082     O
H        0.328    0.046    0.353     H
H        0.328    0.268    0.581     H
H        0.328    0.732    0.919     H
H        0.328    0.954    0.147     H
H        0.329    0.337    0.043     H
H        0.329    0.663    0.457     H
H         0.33    0.347    0.008     H
H         0.33    0.653    0.492     H
C       0.3303   0.0794   0.3583     C
C       0.3303   0.9206   0.1417     C
C       0.3308   0.4966   0.1761     C
C       0.3308   0.5034   0.3239     C
H        0.331    0.482    0.578     H
H        0.331    0.518    0.922     H
C       0.3316   0.2663   0.2801     C
C       0.3316   0.7337   0.2199     C
N       0.3318    0.317    0.548     N
N       0.3318    0.683    0.952     N
H        0.335     0.38    0.493     H
H        0.335     0.62    0.007     H
H        0.336    0.274    0.597     H
H        0.336    0.726    0.903     H
H        0.337    0.043    0.329     H
H        0.337    0.957    0.171     H
C       0.3379   0.3398   0.0756     C
C       0.3379   0.6602   0.4244     C
O       0.3384   0.3593   0.1953     O
O       0.3384   0.6407   0.3047     O
O       0.3418   0.1352   0.4227     O
O       0.3418   0.8648   0.0773     O
H        0.342    0.305    0.094     H
H        0.342    0.695    0.406     H
C       0.3424   0.3213   0.0332     C
C       0.3424   0.6787   0.4668     C
H        0.343    0.012    0.357     H
H        0.343    0.067     0.43     H
H        0.343    0.933     0.07     H
H        0.343    0.988    0.143     H
H        0.344    0.055    0.408     H
H        0.344    0.945    0.092     H
H        0.347    0.008     0.33     H
H        0.347    0.476    0.586     H
H        0.347    0.524    0.914     H
H        0.347    0.992     0.17     H
Ni      0.3473   0.3811    0.601    Ni
Ni      0.3473   0.6189    0.899    Ni
C        0.348   0.3202   0.2127     C
C        0.348   0.6798   0.2873     C
H         0.35     0.29    0.025     H
H         0.35     0.71    0.475     H
Ni       0.351   0.3689   0.5973    Ni
Ni       0.351   0.6311   0.9027    Ni
H        0.353    0.328    0.046     H
H        0.353    0.672    0.454     H
H        0.357    0.343    0.012     H
H        0.357    0.657    0.488     H
O       0.3593   0.1953   0.3384     O
O       0.3593   0.8047   0.1616     O
H         0.36    0.252     0.27     H
H         0.36    0.748     0.23     H
H        0.363    0.494    0.325     H
H        0.363    0.506    0.175     H
O       0.3648   0.4227   0.6582     O
O       0.3648   0.5773   0.8418     O
Ni      0.3689   0.4027    0.149    Ni
Ni      0.3689   0.5973    0.351    Ni
H         0.37    0.415    0.257     H
H         0.37    0.585    0.243     H
O       0.3704   0.4473    0.043     O
O       0.3704   0.5527    0.457     O
O        0.374   0.0962   0.3414     O
O        0.374   0.9038   0.1586     O
O       0.3796    0.293   0.1973     O
O       0.3796    0.707   0.3027     O
H         0.38    0.493    0.335     H
H         0.38    0.507    0.165     H
Ni      0.3811    0.399   0.1527    Ni
Ni      0.3811    0.601   0.3473    Ni
H        0.387    0.425    0.256     H
H        0.387    0.575    0.244     H
H         0.39     0.48    0.498     H
H         0.39     0.52    0.002     H
O       0.3907   0.4116   0.5547     O
O       0.3907   0.5884   0.9453     O
C       0.3917   0.3294   0.0803     C
C       0.3917   0.6706   0.4197     C
H        0.393    0.262    0.093     H
H        0.393    0.738    0.407     H
H        0.397    0.296    0.078     H
H        0.397    0.704    0.422     H
Ni       0.399   0.1527   0.3811    Ni
Ni       0.399   0.8473   0.1189    Ni
H          0.4    0.275     0.04     H
H          0.4    0.725     0.46     H
H        0.401    0.343    0.693     H
H        0.401    0.657    0.807     H
C       0.4018   0.4204   0.2483     C
C       0.4018   0.5796   0.2517     C
H        0.402    0.323    0.681     H
C        0.402   0.4627   0.0702     C
C        0.402   0.5373   0.4298     C
H        0.402    0.677    0.819     H
Ni      0.4027    0.149   0.3689    Ni
Ni      0.4027    0.851   0.1311    Ni
H        0.403    0.164    0.274     H
H        0.403     0.42    0.742     H
H        0.403     0.58    0.758     H
H        0.403    0.836    0.226     H
O       0.4038   0.3414    0.626     O
O       0.4038   0.6586    0.874     O
H        0.407    0.349    0.057     H
H        0.407    0.393    0.738     H
H        0.407    0.607    0.762     H
H        0.407    0.651    0.443     H
C       0.4076   0.2832   0.0713     C
C       0.4076   0.7168   0.4287     C
O       0.4086   0.3462    0.124     O
O       0.4086   0.6538    0.376     O
C       0.4102   0.4121   0.6744     C
C       0.4102   0.5879   0.8256     C
O       0.4116   0.4453   0.1093     O
O       0.4116   0.5547   0.3907     O
H        0.412    0.467    0.715     H
H        0.412    0.533    0.785     H
H        0.413    0.421    0.707     H
H        0.413    0.579    0.793     H
H        0.415    0.257     0.37     H
H        0.415    0.743     0.13     H
N       0.4152   0.4169   0.2044     N
N       0.4152   0.5831   0.2956     N
N       0.4169   0.2044   0.4152     N
N       0.4169   0.7956   0.0848     N
C       0.4184   0.4699   0.4837     C
C       0.4184   0.5301   0.0163     C
H        0.419    0.172    0.268     H
H        0.419    0.828    0.232     H
H         0.42    0.258    0.097     H
H         0.42    0.742    0.403     H
C       0.4204   0.2483   0.4018     C
C       0.4204   0.7517   0.0982     C
C       0.4206   0.3583   0.6697     C
C       0.4206   0.6417   0.8303     C
C       0.4207   0.4348   0.7173     C
C       0.4207   0.5652   0.7827     C
H        0.421    0.293    0.087     H
H        0.421    0.707    0.413     H
H        0.422    0.397    0.704     H
H        0.422    0.603    0.796     H
H        0.425    0.256    0.387     H
H        0.425    0.435    0.316     H
H        0.425    0.565    0.184     H
H        0.425    0.744    0.113     H
H        0.427    0.348    0.069     H
H        0.427    0.652    0.431     H
C       0.4287   0.4076   0.7168     C
C       0.4287   0.5924   0.7832     C
C       0.4298    0.402   0.5373     C
C       0.4298    0.598   0.9627     C
C       0.4306   0.4965   0.4442     C
C       0.4306   0.5035   0.0558     C
H        0.431    0.427    0.652     H
H        0.431    0.573    0.848     H
H        0.432    0.276    0.046     H
H        0.432    0.724    0.454     H
C       0.4323   0.2843   0.4357     C
C       0.4323   0.7157   0.0643     C
H        0.434    0.315    0.325     H
H        0.434    0.685    0.175     H
C       0.4348   0.2827   0.0793     C
C       0.4348   0.7173   0.4207     C
H        0.435    0.316    0.425     H
H        0.435    0.684    0.075     H
C       0.4354   0.1701   0.2799     C
C       0.4354   0.8299   0.2201     C
C       0.4357   0.4323   0.2843     C
C       0.4357   0.5677   0.2157     C
H        0.438    0.309      0.3     H
H        0.438    0.691      0.2     H
H        0.441    0.312     0.45     H
H        0.441    0.688     0.05     H
H        0.443    0.407    0.651     H
H        0.443    0.593    0.849     H
C       0.4442   0.4306   0.4965     C
C       0.4442   0.5694   0.0035     C
O       0.4453   0.1093   0.4116     O
O       0.4453   0.8907   0.0884     O
O       0.4473    0.043   0.3704     O
O       0.4473    0.957   0.1296     O
H         0.45    0.441    0.312     H
H         0.45    0.559    0.188     H
N        0.452   0.1682    0.317     N
N        0.452   0.8318    0.183     N
H        0.454    0.353    0.672     H
H        0.454    0.432    0.724     H
H        0.454    0.568    0.776     H
H        0.454    0.647    0.828     H
H        0.457    0.329    0.663     H
O        0.457   0.3704   0.5527     O
O        0.457   0.6296   0.9473     O
H        0.457    0.671    0.837     H
H        0.458    0.184    0.211     H
H        0.458    0.816    0.289     H
H         0.46      0.4    0.725     H
H         0.46      0.6    0.775     H
H        0.461    0.066    0.208     H
H        0.461    0.934    0.292     H
C       0.4627   0.0702    0.402     C
C       0.4627   0.9298    0.098     C
H        0.465    0.283    0.662     H
H        0.465    0.717    0.838     H
C       0.4657   0.3177   0.3143     C
C       0.4657   0.6823   0.1857     C
C       0.4668   0.3424   0.6787     C
C       0.4668   0.6576   0.8213     C
H        0.467    0.285    0.088     H
H        0.467    0.715    0.412     H
C       0.4673   0.3152   0.6707     C
C       0.4673   0.6848   0.8293     C
C        0.468   0.4249    0.199     C
C        0.468   0.5751    0.301     C
C        0.469   0.1823   0.2425     C
C        0.469   0.8177   0.2575     C
C       0.4699   0.4837   0.4184     C
C       0.4699   0.5163   0.0816     C
H        0.473    0.059     0.23     H
H        0.473    0.941     0.27     H
H        0.474    0.318    0.704     H
H        0.474    0.682    0.796     H
H        0.475     0.35     0.71     H
H        0.475     0.65     0.79     H
H        0.476    0.049    0.288     H
H        0.476    0.414    0.153     H
H        0.476    0.586    0.347     H
H        0.476    0.951    0.212     H
H         0.48    0.191    0.223     H
H         0.48    0.498     0.39     H
H         0.48    0.502     0.11     H
H         0.48    0.809    0.277     H
H        0.482    0.422    0.169     H
H        0.482    0.578    0.331     H
C       0.4837   0.4184   0.4699     C
C       0.4837   0.5816   0.0301     C
H        0.488    0.357    0.657     H
H        0.488    0.643    0.843     H
H        0.492     0.33    0.653     H
H        0.492     0.67    0.847     H
C       0.4925   0.0677    0.219     C
C       0.4925   0.9323    0.281     C
H        0.493    0.335     0.38     H
H        0.493    0.665     0.12     H
H        0.494    0.325    0.363     H
H        0.494    0.675    0.137     H
C       0.4944   0.4358   0.2357     C
C       0.4944   0.5642   0.2643     C
H        0.496    0.051      0.3     H
H        0.496    0.949      0.2     H
C       0.4965   0.4442   0.4306     C
C       0.4965   0.5558   0.0694     C
C       0.4966   0.1761   0.3308     C
C       0.4966   0.8239   0.1692     C
H        0.498     0.39     0.48     H
H        0.498     0.61     0.02     H
C       0.5005   0.0582   0.2671     C
C       0.5005   0.9418   0.2329     C
C       0.5017   0.3296   0.3482     C
C       0.5017   0.6704   0.1518     C
H        0.502     0.11     0.48     H
H        0.502     0.89     0.02     H
C       0.5035   0.0558   0.4306     C
C       0.5035   0.9442   0.0694     C
H        0.506    0.175    0.363     H
H        0.506    0.825    0.137     H
H        0.507    0.165     0.38     H
H        0.507    0.835     0.12     H
H        0.508     0.17    0.653     H
H        0.508     0.83    0.847     H
H        0.512    0.143    0.657     H
H        0.512    0.857    0.843     H
C       0.5143   0.3142   0.2556     C
C       0.5143   0.6858   0.2444     C
C       0.5163   0.0816   0.4699     C
C       0.5163   0.9184   0.0301     C
C       0.5171   0.1918   0.2505     C
C       0.5171   0.8082   0.2495     C
H        0.518    0.078    0.169     H
H        0.518    0.922    0.331     H
H         0.52    0.002     0.39     H
H         0.52    0.309    0.223     H
H         0.52    0.691    0.277     H
H         0.52    0.998     0.11     H
H        0.524    0.086    0.153     H
H        0.524    0.914    0.347     H
H        0.525     0.15     0.71     H
H        0.525     0.85     0.79     H
H        0.526    0.182    0.704     H
H        0.526    0.818    0.796     H
H        0.527    0.441     0.23     H
H        0.527    0.559     0.27     H
C       0.5299   0.0799   0.1854     C
C       0.5299   0.9201   0.3146     C
C       0.5301   0.0163   0.4184     C
C       0.5301   0.9837   0.0816     C
H        0.532    0.191    0.674     H
H        0.532    0.809    0.826     H
C       0.5332   0.1576   0.6787     C
C       0.5332   0.8424   0.8213     C
C       0.5373   0.4298    0.402     C
C       0.5373   0.5702    0.098     C
H        0.538    0.201    0.226     H
H        0.538    0.799    0.274     H
H         0.54      0.1    0.725     H
H         0.54      0.9    0.775     H
O        0.543   0.1296   0.5527     O
H        0.543    0.171    0.663     H
H        0.543    0.829    0.837     H
O        0.543   0.8704   0.9473     O
N       0.5456   0.3331   0.3348     N
N       0.5456   0.6669   0.1652     N
H        0.546    0.068    0.724     H
H        0.546    0.147    0.672     H
H        0.546    0.853    0.828     H
H        0.546    0.932    0.776     H
H        0.549    0.212    0.524     H
H        0.549    0.788    0.976     H
H         0.55    0.199    0.246     H
H         0.55    0.801    0.254     H
H        0.551      0.2    0.504     H
C        0.551   0.3251    0.282     C
C        0.551   0.6749    0.218     C
H        0.551      0.8    0.996     H
O       0.5527    0.457   0.3704     O
O       0.5527    0.543   0.1296     O
O       0.5547   0.3907   0.4116     O
O       0.5547   0.6093   0.0884     O
H        0.555    0.092    0.656     H
H        0.555    0.908    0.844     H
C       0.5558   0.0694   0.4965     C
C       0.5558   0.9306   0.0035     C
C       0.5582   0.2329   0.4995     C
C       0.5582   0.7671   0.0005     C
H        0.559    0.218    0.076     H
H        0.559     0.27    0.527     H
H        0.559     0.73    0.973     H
H        0.559    0.782    0.424     H
C       0.5642   0.2643   0.4944     C
C       0.5642   0.7357   0.0056     C
H        0.567     0.07    0.657     H
N        0.567   0.0818    0.202     N
N        0.567   0.9182    0.298     N
H        0.567     0.93    0.843     H
H        0.568    0.224    0.046     H
H        0.568    0.776    0.454     H
C       0.5694   0.0035   0.4442     C
C       0.5694   0.9965   0.0558     C
H         0.57    0.157    0.067     H
H         0.57    0.843    0.433     H
C       0.5702    0.098   0.5373     C
C       0.5702    0.902   0.9627     C
C       0.5713   0.0924   0.7168     C
C       0.5713   0.9076   0.7832     C
C       0.5739   0.2534   0.4192     C
C       0.5739   0.7466   0.0808     C
H        0.575    0.244    0.387     H
H        0.575    0.756    0.113     H
C       0.5751    0.301    0.468     C
C       0.5751    0.699    0.032     C
C       0.5756   0.1621   0.6602     C
C       0.5756   0.8379   0.8398     C
H        0.576    0.059    0.718     H
H        0.576    0.941    0.782     H
O       0.5773   0.1582   0.1352     O
O       0.5773   0.8418   0.3648     O
H        0.578    0.103    0.704     H
H        0.578    0.331    0.482     H
H        0.578    0.669    0.018     H
H        0.578    0.897    0.796     H
H        0.579    0.207    0.087     H
H        0.579    0.793    0.413     H
H         0.58    0.242    0.097     H
H         0.58    0.758    0.403     H
C       0.5803   0.1083   0.6706     C
C       0.5803   0.8917   0.8294     C
C       0.5808   0.0739   0.2466     C
C       0.5808   0.9261   0.2534     C
H        0.581    0.328    0.268     H
H        0.581    0.672    0.232     H
C       0.5816   0.0301   0.4837     C
C       0.5816   0.9699   0.0163     C
N       0.5818    0.298    0.433     N
N       0.5818    0.702    0.067     N
H        0.585    0.243     0.37     H
H        0.585    0.757     0.13     H
H        0.586    0.347    0.476     H
H        0.586    0.653    0.024     H
H        0.587    0.079    0.707     H
H        0.587    0.921    0.793     H
C       0.5879   0.1744   0.0898     C
C       0.5879   0.8256   0.4102     C
O       0.5884   0.0547   0.1093     O
O       0.5884   0.9453   0.3907     O
O       0.5918   0.1727   0.6148     O
O       0.5918   0.8273   0.8852     O
H        0.592    0.156    0.055     H
H        0.592    0.844    0.445     H
C       0.5924   0.2168   0.0713     C
C       0.5924   0.7832   0.4287     C
H        0.593    0.107    0.738     H
H        0.593     0.18    0.683     H
H        0.593     0.82    0.817     H
H        0.593    0.893    0.762     H
H        0.594    0.158    0.695     H
H        0.594    0.842    0.805     H
H        0.597     0.08    0.742     H
H        0.597    0.336    0.274     H
H        0.597    0.664    0.226     H
H        0.597     0.92    0.758     H
Ni      0.5973    0.351   0.3689    Ni
Ni      0.5973    0.649   0.1311    Ni
C        0.598   0.0373   0.0702     C
C        0.598   0.9627   0.4298     C
H          0.6    0.225     0.04     H
H          0.6    0.775     0.46     H
Ni       0.601   0.3473   0.3811    Ni
Ni       0.601   0.6527   0.1189    Ni
H        0.603    0.204    0.078     H
H        0.603    0.796    0.422     H
H        0.607    0.238    0.093     H
H        0.607    0.762    0.407     H
O       0.6093   0.0884   0.5547     O
O       0.6093   0.9116   0.9453     O
H         0.61     0.02    0.498     H
H         0.61     0.98    0.002     H
H        0.613    0.075    0.256     H
H        0.613    0.925    0.244     H
O       0.6148   0.4082   0.3273     O
O       0.6148   0.5918   0.1727     O
Ni      0.6189    0.101   0.1527    Ni
Ni      0.6189    0.899   0.3473    Ni
H         0.62    0.007    0.335     H
H         0.62    0.993    0.165     H
O       0.6204    0.207   0.1973     O
O       0.6204    0.793   0.3027     O
O        0.624   0.0914   0.6538     O
O        0.624   0.9086   0.8462     O
O       0.6296   0.0527    0.043     O
O       0.6296   0.9473    0.457     O
H         0.63    0.085    0.257     H
H         0.63    0.915    0.243     H
Ni      0.6311   0.0973    0.149    Ni
Ni      0.6311   0.9027    0.351    Ni
H        0.637    0.006    0.325     H
H        0.637    0.994    0.175     H
H         0.64    0.248     0.27     H
H         0.64    0.752     0.23     H
O       0.6407   0.3047   0.3384     O
O       0.6407   0.6953   0.1616     O
C       0.6417   0.1697   0.0794     C
C       0.6417   0.8303   0.4206     C
H        0.643    0.157    0.012     H
H        0.643    0.843    0.488     H
H        0.647    0.172    0.046     H
H        0.647    0.828    0.454     H
Ni       0.649   0.1311   0.5973    Ni
Ni       0.649   0.8689   0.9027    Ni
H         0.65     0.21    0.025     H
H         0.65     0.79    0.475     H
H        0.651    0.443    0.407     H
H        0.651    0.557    0.093     H
C       0.6518   0.0017   0.1704     C
C       0.6518   0.9983   0.3296     C
C        0.652   0.1798   0.2127     C
H        0.652    0.431    0.427     H
H        0.652    0.569    0.073     H
C        0.652   0.8202   0.2873     C
Ni      0.6527   0.1189    0.601    Ni
Ni      0.6527   0.8811    0.899    Ni
H        0.653    0.024    0.586     H
H        0.653    0.492     0.33     H
H        0.653    0.508     0.17     H
H        0.653    0.976    0.914     H
O       0.6538    0.376   0.4086     O
O       0.6538    0.624   0.0914     O
H        0.657    0.193    0.099     H
H        0.657    0.488    0.357     H
H        0.657    0.512    0.143     H
H        0.657    0.807    0.401     H
C       0.6576   0.1787   0.0332     C
C       0.6576   0.8213   0.4668     C
O       0.6586    0.126   0.0962     O
O       0.6586    0.874   0.4038     O
C       0.6602   0.4244   0.3379     C
C       0.6602   0.5756   0.1621     C
O       0.6616   0.1407   0.1953     O
O       0.6616   0.8593   0.3047     O
H        0.662    0.465    0.283     H
H        0.662    0.535    0.217     H
H        0.663    0.457    0.329     H
H        0.663    0.543    0.171     H
H        0.665     0.12    0.493     H
H        0.665     0.88    0.007     H
N       0.6652   0.0456   0.1669     N
N       0.6652   0.9544   0.3331     N
N       0.6669   0.1652   0.5456     N
N       0.6669   0.8348   0.9544     N
C       0.6684   0.2337   0.2801     C
C       0.6684   0.7663   0.2199     C
H        0.669    0.018    0.578     H
H        0.669    0.982    0.922     H
H         0.67    0.153    0.008     H
H         0.67    0.847    0.492     H
C       0.6704   0.1518   0.5017     C
C       0.6704   0.8482   0.9983     C
C       0.6706   0.4197   0.3917     C
C       0.6706   0.5803   0.1083     C
C       0.6707   0.4673   0.3152     C
C       0.6707   0.5327   0.1848     C
H        0.671    0.163    0.043     H
H        0.671    0.837    0.457     H
H        0.672    0.454    0.353     H
H        0.672    0.546    0.147     H
H        0.675    0.066    0.315     H
H        0.675    0.137    0.494     H
H        0.675    0.863    0.006     H
H        0.675    0.934    0.185     H
H        0.677    0.181    0.098     H
H        0.677    0.819    0.402     H
C       0.6787   0.4668   0.3424     C
C       0.6787   0.5332   0.1576     C
C       0.6798   0.2873    0.348     C
C       0.6798   0.7127    0.152     C
C       0.6806   0.1942   0.2535     C
C       0.6806   0.8058   0.2465     C
H        0.681    0.402    0.323     H
H        0.681    0.598    0.177     H
H        0.682    0.204    0.026     H
H        0.682    0.796    0.474     H
C       0.6823   0.1857   0.4657     C
C       0.6823   0.8143   0.0343     C
H        0.684    0.075    0.435     H
H        0.684    0.925    0.065     H
C       0.6848   0.1707   0.0327     C
C       0.6848   0.8293   0.4673     C
H        0.685    0.175    0.434     H
H        0.685    0.825    0.066     H
C       0.6854   0.0299   0.5799     C
C       0.6854   0.9701   0.9201     C
C       0.6857   0.0343   0.3177     C
C       0.6857   0.9657   0.1823     C
H        0.688     0.05    0.441     H
H        0.688     0.95    0.059     H
H        0.691      0.2    0.438     H
H        0.691      0.8    0.062     H
H        0.693    0.401    0.343     H
H        0.693    0.599    0.157     H
C       0.6942   0.2465   0.3194     C
C       0.6942   0.7535   0.1806     C
O       0.6953   0.1616   0.6407     O
O       0.6953   0.8384   0.8593     O
O       0.6973   0.1204    0.707     O
O       0.6973   0.8796    0.793     O
H          0.7    0.062    0.309     H
H          0.7    0.938    0.191     H
N        0.702    0.067   0.5818     N
N        0.702    0.933   0.9182     N
H        0.704    0.422    0.397     H
H        0.704    0.474    0.318     H
H        0.704    0.526    0.182     H
H        0.704    0.578    0.103     H
O        0.707   0.3027   0.3796     O
H        0.707    0.413    0.421     H
H        0.707    0.587    0.079     H
O        0.707   0.6973   0.1204     O
H        0.708    0.039    0.934     H
H        0.708    0.961    0.566     H
H         0.71    0.475     0.35     H
H         0.71    0.525     0.15     H
H        0.711    0.042    0.816     H
H        0.711    0.958    0.684     H
C       0.7127    0.152   0.6798     C
C       0.7127    0.848   0.8202     C
H        0.715    0.412    0.467     H
H        0.715    0.588    0.033     H
C       0.7157   0.0643   0.4323     C
C       0.7157   0.9357   0.0677     C
C       0.7168   0.4287   0.4076     C
C       0.7168   0.5713   0.0924     C
H        0.717    0.162    0.035     H
H        0.717    0.838    0.465     H
C       0.7173   0.4207   0.4348     C
C       0.7173   0.5793   0.0652     C
C        0.718    0.051   0.1749     C
C        0.718    0.949   0.3251     C
C        0.719   0.0075   0.9323     C
C        0.719   0.9925   0.5677     C
C       0.7199   0.1684   0.2663     C
C       0.7199   0.8316   0.2337     C
H        0.723     0.02    0.809     H
H        0.723     0.98    0.691     H
H        0.724    0.454    0.432     H
H        0.724    0.546    0.068     H
H        0.725     0.46      0.4     H
H        0.725     0.54      0.1     H
H        0.726    0.038    0.701     H
H        0.726    0.097    0.164     H
H        0.726    0.903    0.336     H
H        0.726    0.962    0.799     H
H         0.73    0.027    0.941     H
H         0.73     0.14    0.252     H
H         0.73     0.86    0.248     H
H         0.73    0.973    0.559     H
H        0.732    0.081    0.172     H
H        0.732    0.919    0.328     H
C       0.7337   0.2199   0.3316     C
C       0.7337   0.7801   0.1684     C
H        0.738    0.407    0.393     H
H        0.738    0.593    0.107     H
H        0.742    0.403     0.42     H
H        0.742    0.597     0.08     H
C       0.7425    0.031   0.8177     C
C       0.7425    0.969   0.6823     C
H        0.743     0.13    0.415     H
H        0.743     0.87    0.085     H
H        0.744    0.113    0.425     H
H        0.744    0.887    0.075     H
C       0.7444   0.0143   0.1858     C
C       0.7444   0.9857   0.3142     C
H        0.746     0.05    0.699     H
H        0.746     0.95    0.801     H
C       0.7465   0.1806   0.3058     C
C       0.7465   0.8194   0.1942     C
C       0.7466   0.0808   0.5739     C
C       0.7466   0.9192   0.9261     C
H        0.748     0.23     0.36     H
H        0.748     0.77     0.14     H
C       0.7505   0.0171   0.6918     C
C       0.7505   0.9829   0.8082     C
C       0.7517   0.0982   0.4204     C
C       0.7517   0.9018   0.0796     C
H        0.752     0.23     0.64     H
H        0.752     0.77     0.86     H
C       0.7535   0.1806   0.6942     C
C       0.7535   0.8194   0.8058     C
H        0.756    0.113    0.575     H
H        0.756    0.887    0.925     H
H        0.757     0.13    0.585     H
H        0.757     0.87    0.915     H
H        0.758    0.403     0.58     H
H        0.758    0.597     0.92     H
H        0.762    0.407    0.607     H
H        0.762    0.593    0.893     H
C       0.7643   0.0056   0.4358     C
C       0.7643   0.9944   0.0642     C
C       0.7663   0.2199   0.6684     C
C       0.7663   0.7801   0.8316     C
C       0.7671   0.0005   0.5582     C
C       0.7671   0.9995   0.9418     C
H        0.768    0.081    0.828     H
H        0.768    0.919    0.672     H
H         0.77    0.027    0.059     H
H         0.77     0.14    0.748     H
H         0.77     0.86    0.752     H
H         0.77    0.973    0.441     H
H        0.774    0.097    0.836     H
H        0.774    0.903    0.664     H
H        0.775     0.46      0.6     H
H        0.775     0.54      0.9     H
H        0.776    0.454    0.568     H
H        0.776    0.546    0.932     H
H        0.777     0.02    0.191     H
H        0.777     0.98    0.309     H
C       0.7799   0.0646   0.8299     C
C       0.7799   0.9354   0.6701     C
C       0.7801   0.1684   0.7337     C
C       0.7801   0.8316   0.7663     C
H        0.782    0.424    0.559     H
H        0.782    0.576    0.941     H
C       0.7832   0.4287   0.5924     C
C       0.7832   0.5713   0.9076     C
C       0.7873    0.152   0.3202     C
C       0.7873    0.848   0.1798     C
H        0.788    0.024    0.951     H
H        0.788    0.976    0.549     H
H         0.79    0.475     0.65     H
H         0.79    0.525     0.85     H
O        0.793   0.3027   0.6204     O
H        0.793    0.413    0.579     H
H        0.793    0.587    0.921     H
O        0.793   0.6973   0.8796     O
N       0.7956   0.0848   0.4169     N
N       0.7956   0.9152   0.0831     N
H        0.796    0.422    0.603     H
H        0.796    0.474    0.682     H
H        0.796    0.526    0.818     H
H        0.796    0.578    0.897     H
H        0.799    0.274    0.538     H
H        0.799    0.726    0.962     H
H          0.8    0.004    0.949     H
H          0.8    0.996    0.551     H
C        0.801    0.032   0.4249     C
H        0.801    0.254     0.55     H
H        0.801    0.746     0.95     H
C        0.801    0.968   0.0751     C
O       0.8027   0.1204    0.293     O
O       0.8027   0.8796    0.207     O
O       0.8047   0.1616   0.3593     O
O       0.8047   0.8384   0.1407     O
H        0.805    0.406    0.658     H
H        0.805    0.594    0.842     H
C       0.8058   0.2465   0.6806     C
C       0.8058   0.7535   0.8194     C
C       0.8082   0.2495   0.5171     C
C       0.8082   0.7505   0.9829     C
H        0.809    0.174    0.968     H
H        0.809    0.277     0.48     H
H        0.809    0.723     0.02     H
H        0.809    0.826    0.532     H
C       0.8142   0.2444   0.4857     C
C       0.8142   0.7556   0.0143     C
N        0.817    0.048   0.8318     N
H        0.817    0.407     0.68     H
H        0.817    0.593     0.82     H
N        0.817    0.952   0.6682     N
H        0.818    0.204    0.974     H
H        0.818    0.796    0.526     H
C       0.8194   0.1942   0.7465     C
C       0.8194   0.8058   0.7535     C
H         0.82    0.183    0.907     H
H         0.82    0.817    0.593     H
C       0.8202   0.2873    0.652     C
C       0.8202   0.7127    0.848     C
C       0.8213   0.4668   0.6576     C
C       0.8213   0.5332   0.8424     C
C       0.8239   0.1692   0.4966     C
C       0.8239   0.8308   0.0034     C
H        0.825    0.137    0.506     H
H        0.825    0.863    0.994     H
C       0.8251    0.218    0.449     C
C       0.8251    0.782    0.051     C
C       0.8256   0.4102   0.5879     C
C       0.8256   0.5898   0.9121     C
H        0.826    0.468    0.691     H
H        0.826    0.532    0.809     H
O       0.8273   0.1148   0.9082     O
O       0.8273   0.8852   0.5918     O
H        0.828    0.232    0.419     H
H        0.828    0.454    0.647     H
H        0.828    0.546    0.853     H
H        0.828    0.768    0.081     H
H        0.829    0.163    0.957     H
H        0.829    0.837    0.543     H
H         0.83    0.153    0.992     H
H         0.83    0.847    0.508     H
C       0.8303   0.4206   0.6417     C
C       0.8303   0.5794   0.8583     C
C       0.8308   0.0034   0.8239     C
C       0.8308   0.9966   0.6761     C
H        0.831    0.018    0.422     H
H        0.831    0.982    0.078     H
C       0.8316   0.2337   0.7199     C
C       0.8316   0.7663   0.7801     C
N       0.8318    0.183    0.452     N
N       0.8318    0.817    0.048     N
H        0.835     0.12    0.507     H
H        0.835     0.88    0.993     H
H        0.836    0.226    0.403     H
H        0.836    0.774    0.097     H
H        0.837    0.457    0.671     H
H        0.837    0.543    0.829     H
C       0.8379   0.1602   0.9244     C
C       0.8379   0.8398   0.5756     C
O       0.8384   0.1407   0.8047     O
O       0.8384   0.8593   0.6953     O
O       0.8418   0.3648   0.5773     O
O       0.8418   0.6352   0.9227     O
H        0.842    0.195    0.906     H
H        0.842    0.805    0.594     H
C       0.8424   0.1787   0.9668     C
C       0.8424   0.8213   0.5332     C
H        0.843    0.433     0.57     H
H        0.843    0.488    0.643     H
H        0.843    0.512    0.857     H
H        0.843    0.567     0.93     H
H        0.844    0.445    0.592     H
H        0.844    0.555    0.908     H
H        0.847    0.024    0.414     H
H        0.847    0.492     0.67     H
H        0.847    0.508     0.83     H
H        0.847    0.976    0.086     H
Ni      0.8473   0.1189    0.399    Ni
Ni      0.8473   0.8811    0.101    Ni
C        0.848   0.1798   0.7873     C
C        0.848   0.8202   0.7127     C
H         0.85     0.21    0.975     H
H         0.85     0.79    0.525     H
Ni       0.851   0.1311   0.4027    Ni
Ni       0.851   0.8689   0.0973    Ni
H        0.853    0.172    0.954     H
H        0.853    0.828    0.546     H
H        0.857    0.157    0.988     H
H        0.857    0.843    0.512     H
O       0.8593   0.3047   0.6616     O
O       0.8593   0.6953   0.8384     O
H         0.86    0.248     0.73     H
H         0.86    0.752     0.77     H
H        0.863    0.006    0.675     H
H        0.863    0.994    0.825     H
O       0.8648   0.0773   0.3418     O
O       0.8648   0.9227   0.1582     O
Ni      0.8689   0.0973    0.851    Ni
Ni      0.8689   0.9027    0.649    Ni
H         0.87    0.085    0.743     H
H         0.87    0.915    0.757     H
O       0.8704   0.0527    0.957     O
O       0.8704   0.9473    0.543     O
O        0.874   0.4038   0.6586     O
O        0.874   0.5962   0.8414     O
O       0.8796    0.207   0.8027     O
O       0.8796    0.793   0.6973     O
H         0.88    0.007    0.665     H
H         0.88    0.993    0.835     H
Ni      0.8811    0.101   0.8473    Ni
Ni      0.8811    0.899   0.6527    Ni
H        0.887    0.075    0.744     H
H        0.887    0.925    0.756     H
H         0.89     0.02    0.502     H
H         0.89     0.98    0.998     H
O       0.8907   0.0884   0.4453     O
O       0.8907   0.9116   0.0547     O
C       0.8917   0.1706   0.9197     C
C       0.8917   0.8294   0.5803     C
H        0.893    0.238    0.907     H
H        0.893    0.762    0.593     H
H        0.897    0.204    0.922     H
H        0.897    0.796    0.578     H
Ni       0.899   0.3473   0.6189    Ni
Ni       0.899   0.6527   0.8811    Ni
H          0.9    0.225     0.96     H
H          0.9    0.775     0.54     H
H        0.901    0.157    0.307     H
H        0.901    0.843    0.193     H
C       0.9018   0.0796   0.7517     C
C       0.9018   0.9204   0.7483     C
C        0.902   0.0373   0.9298     C
H        0.902    0.177    0.319     H
H        0.902    0.823    0.181     H
C        0.902   0.9627   0.5702     C
Ni      0.9027    0.351   0.6311    Ni
Ni      0.9027    0.649   0.8689    Ni
H        0.903     0.08    0.258     H
H        0.903    0.336    0.726     H
H        0.903    0.664    0.774     H
H        0.903     0.92    0.242     H
O       0.9038   0.1586    0.374     O
O       0.9038   0.8414    0.126     O
H        0.907    0.107    0.262     H
H        0.907    0.151    0.943     H
H        0.907    0.849    0.557     H
H        0.907    0.893    0.238     H
C       0.9076   0.2168   0.9287     C
C       0.9076   0.7832   0.5713     C
O       0.9086   0.1538    0.876     O
O       0.9086   0.8462    0.624     O
C       0.9102   0.0879   0.3256     C
C       0.9102   0.9121   0.1744     C
O       0.9116   0.0547   0.8907     O
O       0.9116   0.9453   0.6093     O
H        0.912    0.033    0.285     H
H        0.912    0.967    0.215     H
H        0.913    0.079    0.293     H
H        0.913    0.921    0.207     H
H        0.915    0.243     0.63     H
H        0.915    0.757     0.87     H
N       0.9152   0.0831   0.7956     N
N       0.9152   0.9169   0.7044     N
N       0.9169   0.2956   0.5848     N
N       0.9169   0.7044   0.9152     N
C       0.9184   0.0301   0.5163     C
C       0.9184   0.9699   0.9837     C
H        0.919    0.328    0.732     H
H        0.919    0.672    0.768     H
H         0.92    0.242    0.903     H
H         0.92    0.758    0.597     H
C       0.9204   0.2517   0.5982     C
C       0.9204   0.7483   0.9018     C
C       0.9206   0.1417   0.3303     C
C       0.9206   0.8583   0.1697     C
C       0.9207   0.0652   0.2827     C
C       0.9207   0.9348   0.2173     C
H        0.921    0.207    0.913     H
H        0.921    0.793    0.587     H
H        0.922    0.103    0.296     H
H        0.922    0.897    0.204     H
H        0.925    0.065    0.684     H
H        0.925    0.244    0.613     H
H        0.925    0.756    0.887     H
H        0.925    0.935    0.816     H
H        0.927    0.152    0.931     H
H        0.927    0.848    0.569     H
C       0.9287   0.0924   0.2832     C
C       0.9287   0.9076   0.2168     C
C       0.9298    0.098   0.4627     C
C       0.9298    0.902   0.0373     C
C       0.9306   0.0035   0.5558     C
C       0.9306   0.9965   0.9442     C
H        0.931    0.073    0.348     H
H        0.931    0.927    0.152     H
H        0.932    0.224    0.954     H
H        0.932    0.776    0.546     H
C       0.9323   0.2157   0.5643     C
C       0.9323   0.7843   0.9357     C
H        0.934    0.185    0.675     H
H        0.934    0.815    0.825     H
C       0.9348   0.2173   0.9207     C
C       0.9348   0.7827   0.5793     C
H        0.935    0.184    0.575     H
H        0.935    0.816    0.925     H
C       0.9354   0.3299   0.7201     C
C       0.9354   0.6701   0.7799     C
C       0.9357   0.0677   0.7157     C
C       0.9357   0.9323   0.7843     C
H        0.938    0.191      0.7     H
H        0.938    0.809      0.8     H
H        0.941    0.188     0.55     H
H        0.941    0.812     0.95     H
H        0.943    0.093    0.349     H
H        0.943    0.907    0.151     H
C       0.9442   0.0694   0.5035     C
C       0.9442   0.9306   0.9965     C
O       0.9453   0.3907   0.5884     O
O       0.9453   0.6093   0.9116     O
O       0.9473    0.457   0.6296     O
O       0.9473    0.543   0.8704     O
H         0.95    0.059    0.688     H
H         0.95    0.941    0.812     H
N        0.952   0.3318    0.683     N
N        0.952   0.6682    0.817     N
H        0.954    0.068    0.276     H
H        0.954    0.147    0.328     H
H        0.954    0.853    0.172     H
H        0.954    0.932    0.224     H
O        0.957   0.1296   0.4473     O
H        0.957    0.171    0.337     H
H        0.957    0.829    0.163     H
O        0.957   0.8704   0.0527     O
H        0.958    0.316    0.789     H
H        0.958    0.684    0.711     H
H         0.96      0.1    0.275     H
H         0.96      0.9    0.225     H
C       0.9627   0.4298    0.598     C
C       0.9627   0.5702    0.902     C
H        0.965    0.217    0.338     H
H        0.965    0.783    0.162     H
C       0.9657   0.1823   0.6857     C
C       0.9657   0.8177   0.8143     C
C       0.9668   0.1576   0.3213     C
C       0.9668   0.8424   0.1787     C
H        0.967    0.215    0.912     H
H        0.967    0.785    0.588     H
C       0.9673   0.1848   0.3293     C
C       0.9673   0.8152   0.1707     C
C        0.968   0.0751    0.801     C
C        0.968   0.9249    0.699     C
C        0.969   0.3177   0.7575     C
C        0.969   0.6823   0.7425     C
C       0.9699   0.0163   0.5816     C
C       0.9699   0.9837   0.9184     C
H        0.973    0.441     0.77     H
H        0.973    0.559     0.73     H
H        0.974    0.182    0.296     H
H        0.974    0.818    0.204     H
H        0.975     0.15     0.29     H
H        0.975     0.85     0.21     H
H        0.976    0.086    0.847     H
H        0.976    0.451    0.712     H
H        0.976    0.549    0.788     H
H        0.976    0.914    0.653     H
H         0.98    0.002     0.61     H
H         0.98    0.309    0.777     H
H         0.98    0.691    0.723     H
H         0.98    0.998     0.89     H
H        0.982    0.078    0.831     H
H        0.982    0.922    0.669     H
C       0.9837   0.0816   0.5301     C
C       0.9837   0.9184   0.9699     C
H        0.988    0.143    0.343     H
H        0.988    0.857    0.157     H
H        0.992     0.17    0.347     H
H        0.992     0.83    0.153     H
H        0.993    0.165     0.62     H
H        0.993    0.835     0.88     H
H        0.994    0.175    0.637     H
H        0.994    0.825    0.863     H
H        0.996    0.449      0.7     H
H        0.996    0.551      0.8     H
C       0.9965   0.0558   0.5694     C
C       0.9965   0.9442   0.9306     C
C       0.9966   0.3239   0.6692     C
C       0.9966   0.6761   0.8308     C
H        0.998     0.11     0.52     H
H        0.998     0.89     0.98     H
