data_I
_chemical_name_common  '/home/zhangsd/repos/MofS-CGCNN/ML/data/WS24/clean_cifs/QOSXOM'
_cell_length_a 17.63560
_cell_length_b 48.06440
_cell_length_c 24.55390
_cell_angle_alpha 90.00000
_cell_angle_beta  90.00000
_cell_angle_gamma 90.00000
_space_group_name_H-M_alt      'P 1'


loop_
_space_group_symop_operation_xyz
  'x, y, z' 

loop_
_atom_site_label
_atom_site_fract_x
_atom_site_fract_y
_atom_site_fract_z
_atom_site_type_symbol
C          0.0   0.1297    0.661     C
C          0.0   0.3703    0.661     C
C          0.0   0.6297    0.339     C
C          0.0   0.8703    0.339     C
N       0.0126   0.5809   0.5876     N
N       0.0126   0.9191   0.5876     N
C        0.016   0.1024   0.6757     C
C        0.016   0.3976   0.6757     C
C        0.024   0.0817   0.3142     C
C        0.024   0.4183   0.3142     C
C       0.0253    0.082   0.4586     C
C       0.0253    0.418   0.4586     C
C        0.036   0.1416    0.617     C
C        0.036   0.3584    0.617     C
C       0.0362   0.0819   0.3701     C
C       0.0362   0.4181   0.3701     C
N       0.0389   0.1786   0.3172     N
N       0.0389   0.3214   0.3172     N
N       0.0399   0.5149   0.3115     N
N       0.0399   0.9851   0.3115     N
C         0.04    0.722    0.572     C
C         0.04    0.778    0.572     C
C        0.048   0.0535    0.814     C
C        0.048   0.4465    0.814     C
C       0.0488   0.1349    0.258     C
C       0.0488   0.3651    0.258     C
C       0.0507   0.7012   0.8109     C
C       0.0507   0.7988   0.8109     C
C        0.055   0.0252   0.2547     C
C        0.055   0.4748   0.2547     C
C       0.0623   0.0237   0.1044     C
C       0.0623   0.4763   0.1044     C
C        0.064    0.641    0.299     C
C        0.064    0.859    0.299     C
C        0.065   0.2377    0.528     C
C        0.065   0.2623    0.528     C
C        0.067   0.0869   0.6457     C
C        0.067   0.4131   0.6457     C
C       0.0676   0.1374   0.0894     C
C       0.0676   0.3626   0.0894     C
Zn     0.06856  0.68932  0.69066    Zn
Zn     0.06856  0.81068  0.69066    Zn
Zn     0.06878  0.02716  0.69597    Zn
Zn     0.06878  0.47284  0.69597    Zn
C       0.0737   0.1561   0.2921     C
C       0.0737   0.3439   0.2921     C
C        0.076   0.0862   0.2079     C
C        0.076   0.4138   0.2079     C
C        0.079     0.75   0.6925     C
N       0.0801   0.7266   0.6595     N
N       0.0801   0.7734   0.6595     N
C        0.085   0.0832   0.2786     C
C        0.085   0.4168   0.2786     C
C        0.086   0.1918   0.3521     C
C        0.086   0.3082   0.3521     C
C        0.087   0.0058   0.2899     C
C        0.087   0.4942   0.2899     C
C        0.088   0.1261   0.5865     C
C        0.088   0.3739   0.5865     C
C        0.088   0.7346   0.6108     C
C        0.088   0.7654   0.6108     C
C       0.0888   0.5288   0.3474     C
C       0.0888   0.9712   0.3474     C
C        0.091   0.6994   0.8607     C
C        0.091   0.8006   0.8607     C
N       0.0923    0.059   0.6446     N
N       0.0923    0.441   0.6446     N
C        0.093   0.6649    0.416     C
C        0.093   0.8351    0.416     C
N       0.0945   0.6924   0.7686     N
N       0.0945   0.8076   0.7686     N
C        0.095    0.049   0.2404     C
C        0.095    0.451   0.2404     C
N       0.0952   0.0363   0.7745     N
N       0.0952   0.4637   0.7745     N
C        0.098   0.1136   0.2433     C
C        0.098   0.3864   0.2433     C
C       0.0986   0.6355   0.6386     C
C       0.0986   0.8645   0.6386     C
C       0.1014   0.5294   0.6474     C
C       0.1014   0.9706   0.6474     C
N       0.1015   0.0832   0.4451     N
N       0.1015   0.4168   0.4451     N
C       0.1036   0.0988   0.6011     C
C       0.1036   0.4012   0.6011     C
C        0.107   0.0528   0.8541     C
C        0.107   0.4472   0.8541     C
C        0.108   0.7214    0.552     C
C        0.108   0.7786    0.552     C
C       0.1096   0.0835   0.3905     C
C       0.1096   0.4165   0.3905     C
C        0.121   0.2208    0.498     C
C        0.121   0.2792    0.498     C
Zn      0.1269  0.58091  0.59006    Zn
Zn      0.1269  0.91909  0.59006    Zn
N       0.1286   0.6588   0.6574     N
N       0.1286   0.8412   0.6574     N
N       0.1324   0.5048   0.6684     N
N       0.1324   0.9952   0.6684     N
C        0.134   0.6356    0.421     C
C        0.134   0.8644    0.421     C
C       0.1343    0.056   0.6005     C
C       0.1343    0.444   0.6005     C
C       0.1403   0.6224   0.4714     C
C       0.1403   0.8776   0.4714     C
N       0.1425   0.0799   0.5727     N
N       0.1425   0.4201   0.5727     N
C        0.145    0.642    0.323     C
C        0.145    0.858    0.323     C
C       0.1472   0.0198   0.1288     C
C       0.1472   0.4802   0.1288     C
C       0.1478    0.156   0.3114     C
C       0.1478    0.344   0.3114     C
C       0.1483    0.142   0.1194     C
C       0.1483    0.358   0.1194     C
N       0.1538   0.6173   0.6235     N
N       0.1538   0.8827   0.6235     N
C       0.1557   0.0249   0.7938     C
C       0.1557   0.4751   0.7938     C
N       0.1557   0.5466   0.6289     N
N       0.1557   0.9534   0.6289     N
N       0.1559   0.5128   0.3443     N
N       0.1559   0.9872   0.3443     N
C       0.1586   0.0847    0.299     C
C       0.1586   0.4153    0.299     C
N       0.1588    0.178   0.3492     N
N       0.1588    0.322   0.3492     N
C        0.159   0.0102   0.3107     C
C        0.159   0.4898   0.3107     C
C       0.1618   0.6893    0.793     C
C       0.1618   0.8107    0.793     C
C        0.162   0.6229   0.3746     C
C        0.162   0.8771   0.3746     C
C       0.1622   0.1682   0.1412     C
C       0.1622   0.3318   0.1412     C
C       0.1637   0.5055   0.1533     C
C       0.1637   0.9945   0.1533     C
N       0.1643   0.6925    0.846     N
N       0.1643   0.8075    0.846     N
C        0.168   0.0534   0.2613     C
C        0.168   0.4466   0.2613     C
N       0.1687   0.0342   0.8455     N
N       0.1687   0.4658   0.8455     N
N       0.1689   0.5777   0.5147     N
N       0.1689   0.9223   0.5147     N
C       0.1708   0.0849   0.3549     C
C       0.1708   0.4151   0.3549     C
C        0.172   0.1135   0.2626     C
C        0.172   0.3865   0.2626     C
C       0.1743   0.5963   0.4749     C
C       0.1743   0.9037   0.4749     C
C       0.1763   0.2357   0.4655     C
C       0.1763   0.2643   0.4655     C
C       0.1789   0.5139   0.9911     C
C       0.1789   0.9861   0.9911     C
C       0.1852   0.6532   0.9972     C
C       0.1852   0.8468   0.9972     C
C        0.187    0.539    0.024     C
C        0.187    0.961    0.024     C
Zn     0.18835  0.08316  0.50062    Zn
Zn     0.18835  0.41684  0.50062    Zn
C       0.1936   0.5532   0.4914     C
C       0.1936   0.9468   0.4914     C
C        0.196   0.5968    0.378     C
C        0.196   0.9032    0.378     C
C       0.1969   0.1347   0.2967     C
C       0.1969   0.3653   0.2967     C
C       0.1996    0.034   0.2964     C
C       0.1996    0.466   0.2964     C
C        0.201   0.6294    0.019     C
C        0.201   0.8706    0.019     C
C       0.2021   0.5836   0.4281     C
C       0.2021   0.9164   0.4281     C
C       0.2045   0.0392   0.1203     C
C       0.2045   0.4608   0.1203     C
C       0.2051   0.5078   0.6607     C
C       0.2051   0.9922   0.6607     C
C        0.206   0.6564   0.6521     C
C        0.206   0.8436   0.6521     C
C       0.2072    0.123   0.1139     C
C       0.2072    0.377   0.1139     C
N       0.2138   0.5559   0.4393     N
N       0.2138   0.9441   0.4393     N
C        0.216   0.0811    0.249     C
C        0.216   0.4189    0.249     C
C       0.2199   0.6302   0.6303     C
C       0.2199   0.8698   0.6303     C
C       0.2216   0.5332   0.6362     C
C       0.2216   0.9668   0.6362     C
C       0.2225   0.1395   0.4498     C
C       0.2225   0.3605   0.4498     C
C       0.2237   0.0278   0.4446     C
C       0.2237   0.4722   0.4446     C
N       0.2265   0.2265   0.4248     N
N       0.2265   0.2735   0.4248     N
N       0.2298   0.5061   0.9474     N
N       0.2298   0.9939   0.9474     N
N       0.2333   0.6612   0.9504     N
N       0.2333   0.8388   0.9504     N
C       0.2351   0.1754   0.1576     C
C       0.2351   0.3246   0.1576     C
C       0.2376   0.5115   0.1692     C
C       0.2376   0.9885   0.1692     C
N       0.2385   0.1193   0.4871     N
N       0.2385   0.3807   0.4871     N
N       0.2417   0.0472   0.4841     N
N       0.2417   0.4528   0.4841     N
Zn     0.24393  0.52447  0.39436    Zn
Zn     0.24393  0.97553  0.39436    Zn
C       0.2465     0.75   0.9027     C
Zn     0.24858  0.18918  0.39431    Zn
Zn     0.24858  0.31082  0.39431    Zn
Zn     0.25142  0.68918  0.89431    Zn
Zn     0.25142  0.81082  0.89431    Zn
C       0.2535     0.25   0.4027     C
Zn     0.25607  0.02447  0.89436    Zn
Zn     0.25607  0.47553  0.89436    Zn
N       0.2583   0.5472   0.9841     N
N       0.2583   0.9528   0.9841     N
N       0.2615   0.6193   0.9871     N
N       0.2615   0.8807   0.9871     N
C       0.2624   0.0115   0.6692     C
C       0.2624   0.4885   0.6692     C
C       0.2649   0.6754   0.6576     C
C       0.2649   0.8246   0.6576     C
N       0.2667   0.1612   0.4504     N
N       0.2667   0.3388   0.4504     N
N       0.2702   0.0061   0.4474     N
N       0.2702   0.4939   0.4474     N
N       0.2735   0.7265   0.9248     N
N       0.2735   0.7735   0.9248     N
C       0.2763   0.5278   0.9446     C
C       0.2763   0.9722   0.9446     C
C       0.2775   0.6395   0.9498     C
C       0.2775   0.8605   0.9498     C
C       0.2784   0.0332   0.1362     C
C       0.2784   0.4668   0.1362     C
C       0.2801   0.1302   0.1303     C
C       0.2801   0.3698   0.1303     C
C        0.284   0.5811    0.749     C
C        0.284   0.9189    0.749     C
N       0.2862   0.0559   0.9393     N
N       0.2862   0.4441   0.9393     N
C       0.2928    0.623   0.6139     C
C       0.2928    0.877   0.6139     C
C        0.294   0.1564   0.1521     C
C        0.294   0.3436   0.1521     C
C       0.2949   0.0078   0.1607     C
C       0.2949   0.4922   0.1607     C
C       0.2955   0.5392   0.6203     C
C       0.2955   0.9608   0.6203     C
C       0.2979   0.0836   0.9281     C
C       0.2979   0.4164   0.9281     C
C        0.299   0.1294    0.519     C
C        0.299   0.3706    0.519     C
C       0.3004    0.534   0.7964     C
C       0.3004    0.966   0.7964     C
C       0.3031   0.6347   0.7967     C
C       0.3031   0.8653   0.7967     C
C        0.304   0.0968    0.878     C
C        0.304   0.4032    0.878     C
C       0.3064   0.0532   0.9914     C
C       0.3064   0.4468   0.9914     C
Zn     0.31165  0.58316  0.00062    Zn
Zn     0.31165  0.91684  0.00062    Zn
C        0.313    0.039    0.524     C
C        0.313    0.461    0.524     C
C       0.3148   0.1532   0.4972     C
C       0.3148   0.3468   0.4972     C
C       0.3211   0.0139   0.4911     C
C       0.3211   0.4861   0.4911     C
C       0.3237   0.7357   0.9655     C
C       0.3237   0.7643   0.9655     C
C       0.3257   0.0963   0.9749     C
C       0.3257   0.4037   0.9749     C
C        0.328   0.6135   0.7626     C
C        0.328   0.8865   0.7626     C
C       0.3292   0.5849   0.8549     C
C       0.3292   0.9151   0.8549     C
N       0.3311   0.0777   0.0147     N
N       0.3311   0.4223   0.0147     N
N       0.3313   0.5342   0.3455     N
N       0.3313   0.9658   0.3455     N
C        0.332   0.5534   0.7613     C
C        0.332   0.9466   0.7613     C
N       0.3357   0.1925    0.346     N
N       0.3357   0.3075    0.346     N
C       0.3363   0.0055   0.6533     C
C       0.3363   0.4945   0.6533     C
C       0.3378   0.6682   0.6412     C
C       0.3378   0.8318   0.6412     C
C        0.338   0.1229   0.8746     C
C        0.338   0.3771   0.8746     C
C       0.3382   0.1893    0.293     C
C       0.3382   0.3107    0.293     C
C        0.341   0.5102   0.8107     C
C        0.341   0.9898   0.8107     C
N       0.3412    0.678   0.8492     N
N       0.3412    0.822   0.8492     N
C       0.3414   0.5847    0.799     C
C       0.3414   0.9153    0.799     C
N       0.3441   0.0128   0.8443     N
N       0.3441   0.4872   0.8443     N
N       0.3443   0.0466   0.1289     N
N       0.3443   0.4534   0.1289     N
C       0.3443   0.5249   0.2938     C
C       0.3443   0.9751   0.2938     C
N       0.3462   0.1173   0.1235     N
N       0.3462   0.3827   0.1235     N
C       0.3517    0.642   0.6194     C
C       0.3517    0.858   0.6194     C
C       0.3522    0.656   0.8114     C
C       0.3522    0.844   0.8114     C
C       0.3528   0.5198   0.6288     C
C       0.3528   0.9802   0.6288     C
C        0.355    0.142    0.823     C
C        0.355    0.358    0.823     C
N       0.3575   0.5799   0.0727     N
N       0.3575   0.9201   0.0727     N
C       0.3597   0.1224   0.9714     C
C       0.3597   0.3776   0.9714     C
C       0.3657    0.556   0.1005     C
C       0.3657    0.944   0.1005     C
C        0.366   0.1356    0.921     C
C        0.366   0.3644    0.921     C
N       0.3676   0.0048   0.1684     N
N       0.3676   0.4952   0.1684     N
N       0.3714   0.1588   0.1574     N
N       0.3714   0.3412   0.1574     N
Zn      0.3731  0.08091  0.09006    Zn
Zn      0.3731  0.41909  0.09006    Zn
C        0.379   0.7208    0.998     C
C        0.379   0.7792    0.998     C
C       0.3904   0.5835   0.8905     C
C       0.3904   0.9165   0.8905     C
C        0.392   0.2214    0.052     C
C        0.392   0.2786    0.052     C
C        0.393   0.5528   0.3541     C
C        0.393   0.9472   0.3541     C
C       0.3964   0.5988   0.1011     C
C       0.3964   0.9012   0.1011     C
N       0.3985   0.5832   0.9451     N
N       0.3985   0.9168   0.9451     N
C       0.3986   0.0294   0.1474     C
C       0.3986   0.4706   0.1474     C
C       0.4014   0.1355   0.1386     C
C       0.4014   0.3645   0.1386     C
C        0.402   0.6136   0.7433     C
C        0.402   0.8864   0.7433     C
N       0.4048   0.5363   0.2745     N
N       0.4048   0.9637   0.2745     N
C        0.405    0.549   0.7404     C
C        0.405    0.951   0.7404     C
N       0.4055   0.1924   0.2686     N
N       0.4055   0.3076   0.2686     N
C        0.407   0.1649    0.916     C
C        0.407   0.3351    0.916     C
N       0.4077    0.559   0.1446     N
N       0.4077    0.941   0.1446     N
C        0.409   0.1994   0.3607     C
C        0.409   0.3006   0.3607     C
C       0.4112   0.0288   0.8474     C
C       0.4112   0.4712   0.8474     C
C        0.412   0.2346   0.1108     C
C        0.412   0.2654   0.1108     C
C        0.412   0.6261   0.0865     C
C        0.412   0.8739   0.0865     C
C        0.413   0.5058   0.7899     C
C        0.413   0.9942   0.7899     C
C        0.414   0.6918   0.8521     C
C        0.414   0.8082   0.8521     C
C        0.415   0.5832   0.7786     C
C        0.415   0.9168   0.7786     C
N       0.4199   0.2266   0.1595     N
N       0.4199   0.2734   0.1595     N
C        0.421     0.25   0.1925     C
C        0.424   0.5862   0.7079     C
C        0.424   0.9138   0.7079     C
C       0.4263   0.6561   0.7921     C
C       0.4263   0.8439   0.7921     C
Zn     0.43122  0.52716  0.19597    Zn
Zn     0.43122  0.97284  0.19597    Zn
Zn     0.43144  0.18932  0.19066    Zn
Zn     0.43144  0.31068  0.19066    Zn
C       0.4324   0.6374   0.5894     C
C       0.4324   0.8626   0.5894     C
C        0.433   0.5869   0.1457     C
C        0.433   0.9131   0.1457     C
C        0.435   0.7377    0.028     C
C        0.435   0.7623    0.028     C
C        0.436    0.141    0.799     C
C        0.436    0.359    0.799     C
C       0.4377   0.5237   0.6044     C
C       0.4377   0.9763   0.6044     C
C        0.445   0.5252   0.7547     C
C        0.445   0.9748   0.7547     C
C       0.4493   0.2012   0.3109     C
C       0.4493   0.2988   0.3109     C
C       0.4512   0.6349    0.758     C
C       0.4512   0.8651    0.758     C
C        0.452   0.5535    0.314     C
C        0.452   0.9465    0.314     C
C         0.46    0.222    0.072     C
C         0.46    0.278    0.072     C
N       0.4601   0.0149   0.8115     N
N       0.4601   0.4851   0.8115     N
N       0.4611   0.6786   0.8172     N
N       0.4611   0.8214   0.8172     N
C       0.4638   0.5819   0.8701     C
C       0.4638   0.9181   0.8701     C
C        0.464   0.6416    0.117     C
C        0.464   0.8584    0.117     C
C       0.4747    0.582   0.9586     C
C       0.4747    0.918   0.9586     C
C        0.476   0.5817   0.8142     C
C        0.476   0.9183   0.8142     C
C        0.484   0.6024   0.1757     C
C        0.484   0.8976   0.1757     C
N       0.4874   0.0809   0.0876     N
N       0.4874   0.4191   0.0876     N
C          0.5   0.1297    0.839     C
C          0.5   0.3703    0.839     C
C          0.5   0.6297    0.161     C
C          0.5   0.8703    0.161     C
N       0.5126   0.5809   0.9124     N
N       0.5126   0.9191   0.9124     N
C        0.516   0.1024   0.8243     C
C        0.516   0.3976   0.8243     C
C        0.524   0.0817   0.1858     C
C        0.524   0.4183   0.1858     C
C       0.5253    0.082   0.0414     C
C       0.5253    0.418   0.0414     C
C        0.536   0.1416    0.883     C
C        0.536   0.3584    0.883     C
C       0.5362   0.0819   0.1299     C
C       0.5362   0.4181   0.1299     C
N       0.5389   0.1786   0.1828     N
N       0.5389   0.3214   0.1828     N
N       0.5399   0.5149   0.1885     N
N       0.5399   0.9851   0.1885     N
C         0.54    0.722    0.928     C
C         0.54    0.778    0.928     C
C        0.548   0.0535    0.686     C
C        0.548   0.4465    0.686     C
C       0.5488   0.1349    0.242     C
C       0.5488   0.3651    0.242     C
C       0.5507   0.7012   0.6891     C
C       0.5507   0.7988   0.6891     C
C        0.555   0.0252   0.2453     C
C        0.555   0.4748   0.2453     C
C       0.5623   0.0237   0.3956     C
C       0.5623   0.4763   0.3956     C
C        0.564    0.641    0.201     C
C        0.564    0.859    0.201     C
C        0.565   0.2377    0.972     C
C        0.565   0.2623    0.972     C
C        0.567   0.0869   0.8543     C
C        0.567   0.4131   0.8543     C
C       0.5676   0.1374   0.4106     C
C       0.5676   0.3626   0.4106     C
Zn     0.56856  0.68932  0.80934    Zn
Zn     0.56856  0.81068  0.80934    Zn
Zn     0.56878  0.02716  0.80403    Zn
Zn     0.56878  0.47284  0.80403    Zn
C       0.5737   0.1561   0.2079     C
C       0.5737   0.3439   0.2079     C
C        0.576   0.0862   0.2921     C
C        0.576   0.4138   0.2921     C
C        0.579     0.75   0.8075     C
N       0.5801   0.7266   0.8405     N
N       0.5801   0.7734   0.8405     N
C        0.585   0.0832   0.2214     C
C        0.585   0.4168   0.2214     C
C        0.586   0.1918   0.1479     C
C        0.586   0.3082   0.1479     C
C        0.587   0.0058   0.2101     C
C        0.587   0.4942   0.2101     C
C        0.588   0.1261   0.9135     C
C        0.588   0.3739   0.9135     C
C        0.588   0.7346   0.8892     C
C        0.588   0.7654   0.8892     C
C       0.5888   0.5288   0.1526     C
C       0.5888   0.9712   0.1526     C
C        0.591   0.6994   0.6393     C
C        0.591   0.8006   0.6393     C
N       0.5923    0.059   0.8554     N
N       0.5923    0.441   0.8554     N
C        0.593   0.6649    0.084     C
C        0.593   0.8351    0.084     C
N       0.5945   0.6924   0.7314     N
N       0.5945   0.8076   0.7314     N
C        0.595    0.049   0.2596     C
C        0.595    0.451   0.2596     C
N       0.5952   0.0363   0.7255     N
N       0.5952   0.4637   0.7255     N
C        0.598   0.1136   0.2567     C
C        0.598   0.3864   0.2567     C
C       0.5986   0.6355   0.8614     C
C       0.5986   0.8645   0.8614     C
C       0.6014   0.5294   0.8526     C
C       0.6014   0.9706   0.8526     C
N       0.6015   0.0832   0.0549     N
N       0.6015   0.4168   0.0549     N
C       0.6036   0.0988   0.8989     C
C       0.6036   0.4012   0.8989     C
C        0.607   0.0528   0.6459     C
C        0.607   0.4472   0.6459     C
C        0.608   0.7214    0.948     C
C        0.608   0.7786    0.948     C
C       0.6096   0.0835   0.1095     C
C       0.6096   0.4165   0.1095     C
C        0.621   0.2208    0.002     C
C        0.621   0.2792    0.002     C
Zn      0.6269  0.58091  0.90994    Zn
Zn      0.6269  0.91909  0.90994    Zn
N       0.6286   0.6588   0.8426     N
N       0.6286   0.8412   0.8426     N
N       0.6324   0.5048   0.8316     N
N       0.6324   0.9952   0.8316     N
C        0.634   0.6356    0.079     C
C        0.634   0.8644    0.079     C
C       0.6343    0.056   0.8995     C
C       0.6343    0.444   0.8995     C
C       0.6403   0.6224   0.0286     C
C       0.6403   0.8776   0.0286     C
N       0.6425   0.0799   0.9273     N
N       0.6425   0.4201   0.9273     N
C        0.645    0.642    0.177     C
C        0.645    0.858    0.177     C
C       0.6472   0.0198   0.3712     C
C       0.6472   0.4802   0.3712     C
C       0.6478    0.156   0.1886     C
C       0.6478    0.344   0.1886     C
C       0.6483    0.142   0.3806     C
C       0.6483    0.358   0.3806     C
N       0.6538   0.6173   0.8765     N
N       0.6538   0.8827   0.8765     N
C       0.6557   0.0249   0.7062     C
C       0.6557   0.4751   0.7062     C
N       0.6557   0.5466   0.8711     N
N       0.6557   0.9534   0.8711     N
N       0.6559   0.5128   0.1557     N
N       0.6559   0.9872   0.1557     N
C       0.6586   0.0847    0.201     C
C       0.6586   0.4153    0.201     C
N       0.6588    0.178   0.1508     N
N       0.6588    0.322   0.1508     N
C        0.659   0.0102   0.1893     C
C        0.659   0.4898   0.1893     C
C       0.6618   0.6893    0.707     C
C       0.6618   0.8107    0.707     C
C        0.662   0.6229   0.1254     C
C        0.662   0.8771   0.1254     C
C       0.6622   0.1682   0.3588     C
C       0.6622   0.3318   0.3588     C
C       0.6637   0.5055   0.3467     C
C       0.6637   0.9945   0.3467     C
N       0.6643   0.6925    0.654     N
N       0.6643   0.8075    0.654     N
C        0.668   0.0534   0.2387     C
C        0.668   0.4466   0.2387     C
N       0.6687   0.0342   0.6545     N
N       0.6687   0.4658   0.6545     N
N       0.6689   0.5777   0.9853     N
N       0.6689   0.9223   0.9853     N
C       0.6708   0.0849   0.1451     C
C       0.6708   0.4151   0.1451     C
C        0.672   0.1135   0.2374     C
C        0.672   0.3865   0.2374     C
C       0.6743   0.5963   0.0251     C
C       0.6743   0.9037   0.0251     C
C       0.6763   0.2357   0.0345     C
C       0.6763   0.2643   0.0345     C
C       0.6789   0.5139   0.5089     C
C       0.6789   0.9861   0.5089     C
C       0.6852   0.6532   0.5028     C
C       0.6852   0.8468   0.5028     C
C        0.687    0.539    0.476     C
C        0.687    0.961    0.476     C
Zn     0.68835  0.08316  0.99938    Zn
Zn     0.68835  0.41684  0.99938    Zn
C       0.6936   0.5532   0.0086     C
C       0.6936   0.9468   0.0086     C
C        0.696   0.5968    0.122     C
C        0.696   0.9032    0.122     C
C       0.6969   0.1347   0.2033     C
C       0.6969   0.3653   0.2033     C
C       0.6996    0.034   0.2036     C
C       0.6996    0.466   0.2036     C
C        0.701   0.6294    0.481     C
C        0.701   0.8706    0.481     C
C       0.7021   0.5836   0.0719     C
C       0.7021   0.9164   0.0719     C
C       0.7045   0.0392   0.3797     C
C       0.7045   0.4608   0.3797     C
C       0.7051   0.5078   0.8393     C
C       0.7051   0.9922   0.8393     C
C        0.706   0.6564   0.8479     C
C        0.706   0.8436   0.8479     C
C       0.7072    0.123   0.3861     C
C       0.7072    0.377   0.3861     C
N       0.7138   0.5559   0.0607     N
N       0.7138   0.9441   0.0607     N
C        0.716   0.0811    0.251     C
C        0.716   0.4189    0.251     C
C       0.7199   0.6302   0.8697     C
C       0.7199   0.8698   0.8697     C
C       0.7216   0.5332   0.8638     C
C       0.7216   0.9668   0.8638     C
C       0.7225   0.1395   0.0502     C
C       0.7225   0.3605   0.0502     C
C       0.7237   0.0278   0.0554     C
C       0.7237   0.4722   0.0554     C
N       0.7265   0.2265   0.0752     N
N       0.7265   0.2735   0.0752     N
N       0.7298   0.5061   0.5526     N
N       0.7298   0.9939   0.5526     N
N       0.7333   0.6612   0.5496     N
N       0.7333   0.8388   0.5496     N
C       0.7351   0.1754   0.3424     C
C       0.7351   0.3246   0.3424     C
C       0.7376   0.5115   0.3308     C
C       0.7376   0.9885   0.3308     C
N       0.7385   0.1193   0.0129     N
N       0.7385   0.3807   0.0129     N
N       0.7417   0.0472   0.0159     N
N       0.7417   0.4528   0.0159     N
Zn     0.74393  0.52447  0.10564    Zn
Zn     0.74393  0.97553  0.10564    Zn
C       0.7465     0.75   0.5973     C
Zn     0.74858  0.18918  0.10569    Zn
Zn     0.74858  0.31082  0.10569    Zn
Zn     0.75142  0.68918  0.60569    Zn
Zn     0.75142  0.81082  0.60569    Zn
C       0.7535     0.25   0.0973     C
Zn     0.75607  0.02447  0.60564    Zn
Zn     0.75607  0.47553  0.60564    Zn
N       0.7583   0.5472   0.5159     N
N       0.7583   0.9528   0.5159     N
N       0.7615   0.6193   0.5129     N
N       0.7615   0.8807   0.5129     N
C       0.7624   0.0115   0.8308     C
C       0.7624   0.4885   0.8308     C
C       0.7649   0.6754   0.8424     C
C       0.7649   0.8246   0.8424     C
N       0.7667   0.1612   0.0496     N
N       0.7667   0.3388   0.0496     N
N       0.7702   0.0061   0.0526     N
N       0.7702   0.4939   0.0526     N
N       0.7735   0.7265   0.5752     N
N       0.7735   0.7735   0.5752     N
C       0.7763   0.5278   0.5554     C
C       0.7763   0.9722   0.5554     C
C       0.7775   0.6395   0.5502     C
C       0.7775   0.8605   0.5502     C
C       0.7784   0.0332   0.3638     C
C       0.7784   0.4668   0.3638     C
C       0.7801   0.1302   0.3697     C
C       0.7801   0.3698   0.3697     C
C        0.784   0.5811    0.751     C
C        0.784   0.9189    0.751     C
N       0.7862   0.0559   0.5607     N
N       0.7862   0.4441   0.5607     N
C       0.7928    0.623   0.8861     C
C       0.7928    0.877   0.8861     C
C        0.794   0.1564   0.3479     C
C        0.794   0.3436   0.3479     C
C       0.7949   0.0078   0.3393     C
C       0.7949   0.4922   0.3393     C
C       0.7955   0.5392   0.8797     C
C       0.7955   0.9608   0.8797     C
C       0.7979   0.0836   0.5719     C
C       0.7979   0.4164   0.5719     C
C        0.799   0.1294    0.981     C
C        0.799   0.3706    0.981     C
C       0.8004    0.534   0.7036     C
C       0.8004    0.966   0.7036     C
C       0.8031   0.6347   0.7033     C
C       0.8031   0.8653   0.7033     C
C        0.804   0.0968    0.622     C
C        0.804   0.4032    0.622     C
C       0.8064   0.0532   0.5086     C
C       0.8064   0.4468   0.5086     C
Zn     0.81165  0.58316  0.49938    Zn
Zn     0.81165  0.91684  0.49938    Zn
C        0.813    0.039    0.976     C
C        0.813    0.461    0.976     C
C       0.8148   0.1532   0.0028     C
C       0.8148   0.3468   0.0028     C
C       0.8211   0.0139   0.0089     C
C       0.8211   0.4861   0.0089     C
C       0.8237   0.7357   0.5345     C
C       0.8237   0.7643   0.5345     C
C       0.8257   0.0963   0.5251     C
C       0.8257   0.4037   0.5251     C
C        0.828   0.6135   0.7374     C
C        0.828   0.8865   0.7374     C
C       0.8292   0.5849   0.6451     C
C       0.8292   0.9151   0.6451     C
N       0.8311   0.0777   0.4853     N
N       0.8311   0.4223   0.4853     N
N       0.8313   0.5342   0.1545     N
N       0.8313   0.9658   0.1545     N
C        0.832   0.5534   0.7387     C
C        0.832   0.9466   0.7387     C
N       0.8357   0.1925    0.154     N
N       0.8357   0.3075    0.154     N
C       0.8363   0.0055   0.8467     C
C       0.8363   0.4945   0.8467     C
C       0.8378   0.6682   0.8588     C
C       0.8378   0.8318   0.8588     C
C        0.838   0.1229   0.6254     C
C        0.838   0.3771   0.6254     C
C       0.8382   0.1893    0.207     C
C       0.8382   0.3107    0.207     C
C        0.841   0.5102   0.6893     C
C        0.841   0.9898   0.6893     C
N       0.8412    0.678   0.6508     N
N       0.8412    0.822   0.6508     N
C       0.8414   0.5847    0.701     C
C       0.8414   0.9153    0.701     C
N       0.8441   0.0128   0.6557     N
N       0.8441   0.4872   0.6557     N
N       0.8443   0.0466   0.3711     N
N       0.8443   0.4534   0.3711     N
C       0.8443   0.5249   0.2062     C
C       0.8443   0.9751   0.2062     C
N       0.8462   0.1173   0.3765     N
N       0.8462   0.3827   0.3765     N
C       0.8517    0.642   0.8806     C
C       0.8517    0.858   0.8806     C
C       0.8522    0.656   0.6886     C
C       0.8522    0.844   0.6886     C
C       0.8528   0.5198   0.8712     C
C       0.8528   0.9802   0.8712     C
C        0.855    0.142    0.677     C
C        0.855    0.358    0.677     C
N       0.8575   0.5799   0.4273     N
N       0.8575   0.9201   0.4273     N
C       0.8597   0.1224   0.5286     C
C       0.8597   0.3776   0.5286     C
C       0.8657    0.556   0.3995     C
C       0.8657    0.944   0.3995     C
C        0.866   0.1356    0.579     C
C        0.866   0.3644    0.579     C
N       0.8676   0.0048   0.3316     N
N       0.8676   0.4952   0.3316     N
N       0.8714   0.1588   0.3426     N
N       0.8714   0.3412   0.3426     N
Zn      0.8731  0.08091  0.40994    Zn
Zn      0.8731  0.41909  0.40994    Zn
C        0.879   0.7208    0.502     C
C        0.879   0.7792    0.502     C
C       0.8904   0.5835   0.6095     C
C       0.8904   0.9165   0.6095     C
C        0.892   0.2214    0.448     C
C        0.892   0.2786    0.448     C
C        0.893   0.5528   0.1459     C
C        0.893   0.9472   0.1459     C
C       0.8964   0.5988   0.3989     C
C       0.8964   0.9012   0.3989     C
N       0.8985   0.5832   0.5549     N
N       0.8985   0.9168   0.5549     N
C       0.8986   0.0294   0.3526     C
C       0.8986   0.4706   0.3526     C
C       0.9014   0.1355   0.3614     C
C       0.9014   0.3645   0.3614     C
C        0.902   0.6136   0.7567     C
C        0.902   0.8864   0.7567     C
N       0.9048   0.5363   0.2255     N
N       0.9048   0.9637   0.2255     N
C        0.905    0.549   0.7596     C
C        0.905    0.951   0.7596     C
N       0.9055   0.1924   0.2314     N
N       0.9055   0.3076   0.2314     N
C        0.907   0.1649    0.584     C
C        0.907   0.3351    0.584     C
N       0.9077    0.559   0.3554     N
N       0.9077    0.941   0.3554     N
C        0.909   0.1994   0.1393     C
C        0.909   0.3006   0.1393     C
C       0.9112   0.0288   0.6526     C
C       0.9112   0.4712   0.6526     C
C        0.912   0.2346   0.3892     C
C        0.912   0.2654   0.3892     C
C        0.912   0.6261   0.4135     C
C        0.912   0.8739   0.4135     C
C        0.913   0.5058   0.7101     C
C        0.913   0.9942   0.7101     C
C        0.914   0.6918   0.6479     C
C        0.914   0.8082   0.6479     C
C        0.915   0.5832   0.7214     C
C        0.915   0.9168   0.7214     C
N       0.9199   0.2266   0.3405     N
N       0.9199   0.2734   0.3405     N
C        0.921     0.25   0.3075     C
C        0.924   0.5862   0.7921     C
C        0.924   0.9138   0.7921     C
C       0.9263   0.6561   0.7079     C
C       0.9263   0.8439   0.7079     C
Zn     0.93122  0.52716  0.30403    Zn
Zn     0.93122  0.97284  0.30403    Zn
Zn     0.93144  0.18932  0.30934    Zn
Zn     0.93144  0.31068  0.30934    Zn
C       0.9324   0.6374   0.9106     C
C       0.9324   0.8626   0.9106     C
C        0.933   0.5869   0.3543     C
C        0.933   0.9131   0.3543     C
C        0.935   0.7377    0.472     C
C        0.935   0.7623    0.472     C
C        0.936    0.141    0.701     C
C        0.936    0.359    0.701     C
C       0.9377   0.5237   0.8956     C
C       0.9377   0.9763   0.8956     C
C        0.945   0.5252   0.7453     C
C        0.945   0.9748   0.7453     C
C       0.9493   0.2012   0.1891     C
C       0.9493   0.2988   0.1891     C
C       0.9512   0.6349    0.742     C
C       0.9512   0.8651    0.742     C
C        0.952   0.5535    0.186     C
C        0.952   0.9465    0.186     C
C         0.96    0.222    0.428     C
C         0.96    0.278    0.428     C
N       0.9601   0.0149   0.6885     N
N       0.9601   0.4851   0.6885     N
N       0.9611   0.6786   0.6828     N
N       0.9611   0.8214   0.6828     N
C       0.9638   0.5819   0.6299     C
C       0.9638   0.9181   0.6299     C
C        0.964   0.6416    0.383     C
C        0.964   0.8584    0.383     C
C       0.9747    0.582   0.5414     C
C       0.9747    0.918   0.5414     C
C        0.976   0.5817   0.6858     C
C        0.976   0.9183   0.6858     C
C        0.984   0.6024   0.3243     C
C        0.984   0.8976   0.3243     C
N       0.9874   0.0809   0.4124     N
N       0.9874   0.4191   0.4124     N
