data_I
_chemical_name_common  '/home/zhangsd/repos/MofS-CGCNN/ML/data/WS24/clean_cifs/RABNOX'
_cell_length_a 13.58950
_cell_length_b  8.83510
_cell_length_c  9.22940
_cell_angle_alpha 90.00000
_cell_angle_beta  100.79000
_cell_angle_gamma 90.00000
_space_group_name_H-M_alt      'P 1'


loop_
_space_group_symop_operation_xyz
  'x, y, z' 

loop_
_atom_site_label
_atom_site_fract_x
_atom_site_fract_y
_atom_site_fract_z
_atom_site_type_symbol
P          0.0   0.4577     0.75     P
P          0.0   0.5423     0.25     P
O       0.0209   0.1488   0.4384     O
O       0.0209   0.8512   0.9384     O
O       0.0652   0.3485   0.8669     O
O       0.0652   0.6515   0.3669     O
O        0.066     0.44   0.1698     O
O        0.066     0.56   0.6698     O
Zr      0.1099   0.2533   0.0705    Zr
Zr      0.1099   0.7467   0.5705    Zr
P       0.1294   0.1174   0.4295     P
P       0.1294   0.8826   0.9295     P
O       0.1517   0.0517   0.9789     O
O       0.1517   0.9483   0.4789     O
O       0.1537   0.1527   0.2769     O
O       0.1537   0.8473   0.7769     O
C       0.1943    0.254   0.5564     C
C       0.1943    0.746   0.0564     C
C       0.2238    0.211    0.717     C
C       0.2238    0.789    0.217     C
F       0.2509   0.3339   0.0814     F
F       0.2509   0.6661   0.5814     F
N       0.3347   0.1658   0.7232     N
N       0.3347   0.8342   0.2232     N
C       0.3491   0.0064   0.7177     C
C       0.3491   0.9936   0.2177     C
C       0.3966   0.2463   0.6549     C
C       0.3966   0.7537   0.1549     C
C       0.4003   0.0519   0.1169     C
C       0.4003   0.9481   0.6169     C
C       0.4266    0.183   0.5291     C
C       0.4266    0.817   0.0291     C
C       0.4552   0.0271    0.534     C
C       0.4552   0.9729    0.034     C
C       0.5448   0.0271    0.966     C
C       0.5448   0.9729    0.466     C
C       0.5734    0.183   0.9709     C
C       0.5734    0.817   0.4709     C
C       0.5997   0.0519   0.3831     C
C       0.5997   0.9481   0.8831     C
C       0.6034   0.2463   0.8451     C
C       0.6034   0.7537   0.3451     C
C       0.6509   0.0064   0.7823     C
C       0.6509   0.9936   0.2823     C
N       0.6653   0.1658   0.7768     N
N       0.6653   0.8342   0.2768     N
F       0.7491   0.3339   0.4186     F
F       0.7491   0.6661   0.9186     F
C       0.7762    0.211    0.783     C
C       0.7762    0.789    0.283     C
C       0.8057    0.254   0.9436     C
C       0.8057    0.746   0.4436     C
O       0.8463   0.1527   0.2231     O
O       0.8463   0.8473   0.7231     O
O       0.8483   0.0517   0.5211     O
O       0.8483   0.9483   0.0211     O
P       0.8706   0.1174   0.0705     P
P       0.8706   0.8826   0.5705     P
Zr      0.8901   0.2533   0.4295    Zr
Zr      0.8901   0.7467   0.9295    Zr
O        0.934     0.44   0.3302     O
O        0.934     0.56   0.8302     O
O       0.9348   0.3485   0.6331     O
O       0.9348   0.6515   0.1331     O
O       0.9791   0.1488   0.0616     O
O       0.9791   0.8512   0.5616     O
