data_I
_chemical_name_common  '/home/zhangsd/repos/MofS-CGCNN/ML/data/WS24/clean_cifs/ROQNES03'
_cell_length_a 13.14970
_cell_length_b 13.14970
_cell_length_c 13.14970
_cell_angle_alpha 90.00000
_cell_angle_beta  90.00000
_cell_angle_gamma 90.00000
_space_group_name_H-M_alt      'P 1'


loop_
_space_group_symop_operation_xyz
  'x, y, z' 

loop_
_atom_site_label
_atom_site_fract_x
_atom_site_fract_y
_atom_site_fract_z
_atom_site_type_symbol
Cr         0.0      0.0      0.0    Cr
K          0.0      0.0      0.5     K
K          0.0      0.5      0.0     K
Cr         0.0      0.5      0.5    Cr
N       0.0187   0.5372  0.71406     N
N       0.0187   0.9628  0.21406     N
N       0.0192   0.0338   0.7078     N
N       0.0192   0.4662   0.2078     N
N       0.0338   0.7078   0.0192     N
N       0.0338   0.7922   0.5192     N
N       0.0372  0.71406   0.4813     N
N       0.0372  0.78594   0.9813     N
N       0.0433  0.63536   0.4376     N
N       0.0433  0.86464   0.9376     N
N       0.0624   0.5433  0.63536     N
N       0.0624   0.9567  0.13536     N
N      0.13536   0.0624   0.9567     N
N      0.13536   0.4376   0.4567     N
N       0.2078   0.0192   0.4662     N
N       0.2078   0.4808   0.9662     N
N      0.21406   0.0187   0.9628     N
N      0.21406   0.4813   0.4628     N
N      0.28594   0.5187   0.9628     N
N      0.28594   0.9813   0.4628     N
N       0.2922   0.5192   0.4662     N
N       0.2922   0.9808   0.9662     N
N      0.36464   0.5624   0.9567     N
N      0.36464   0.9376   0.4567     N
N       0.4376   0.0433  0.63536     N
N       0.4376   0.4567  0.13536     N
N       0.4567  0.13536   0.4376     N
N       0.4567  0.36464   0.9376     N
N       0.4628  0.21406   0.4813     N
N       0.4628  0.28594   0.9813     N
N       0.4662   0.2078   0.0192     N
N       0.4662   0.2922   0.5192     N
N       0.4808   0.5338   0.7078     N
N       0.4808   0.9662   0.2078     N
N       0.4813   0.0372  0.71406     N
N       0.4813   0.4628  0.21406     N
K          0.5      0.0      0.0     K
Cr         0.5      0.0      0.5    Cr
Cr         0.5      0.5      0.0    Cr
K          0.5      0.5      0.5     K
N       0.5187   0.5372  0.78594     N
N       0.5187   0.9628  0.28594     N
N       0.5192   0.0338   0.7922     N
N       0.5192   0.4662   0.2922     N
N       0.5338   0.7078   0.4808     N
N       0.5338   0.7922   0.9808     N
N       0.5372  0.71406   0.0187     N
N       0.5372  0.78594   0.5187     N
N       0.5433  0.63536   0.0624     N
N       0.5433  0.86464   0.5624     N
N       0.5624   0.5433  0.86464     N
N       0.5624   0.9567  0.36464     N
N      0.63536   0.0624   0.5433     N
N      0.63536   0.4376   0.0433     N
N       0.7078   0.0192   0.0338     N
N       0.7078   0.4808   0.5338     N
N      0.71406   0.0187   0.5372     N
N      0.71406   0.4813   0.0372     N
N      0.78594   0.5187   0.5372     N
N      0.78594   0.9813   0.0372     N
N       0.7922   0.5192   0.0338     N
N       0.7922   0.9808   0.5338     N
N      0.86464   0.5624   0.5433     N
N      0.86464   0.9376   0.0433     N
N       0.9376   0.0433  0.86464     N
N       0.9376   0.4567  0.36464     N
N       0.9567  0.13536   0.0624     N
N       0.9567  0.36464   0.5624     N
N       0.9628  0.21406   0.0187     N
N       0.9628  0.28594   0.5187     N
N       0.9662   0.2078   0.4808     N
N       0.9662   0.2922   0.9808     N
N       0.9808   0.5338   0.7922     N
N       0.9808   0.9662   0.2922     N
N       0.9813   0.0372  0.78594     N
N       0.9813   0.4628  0.28594     N
