data_I
_chemical_name_common  '/home/zhangsd/repos/MofS-CGCNN/ML/data/WS24/clean_cifs/RUBTAK02'
_cell_length_a 14.66750
_cell_length_b 14.66750
_cell_length_c 14.66750
_cell_angle_alpha 60.00000
_cell_angle_beta  60.00000
_cell_angle_gamma 60.00000
_space_group_name_H-M_alt      'P 1'


loop_
_space_group_symop_operation_xyz
  'x, y, z' 

loop_
_atom_site_label
_atom_site_fract_x
_atom_site_fract_y
_atom_site_fract_z
_atom_site_type_symbol
C          0.0      0.0   0.7054     C
C          0.0   0.2946   0.7054     C
C          0.0   0.2946      1.0     C
C          0.0   0.4038   0.5962     C
C          0.0   0.4038      1.0     C
C          0.0   0.5962      0.0     C
C          0.0   0.5962   0.4038     C
C          0.0   0.7054   0.2946     C
C          0.0   0.7054      1.0     C
C          0.0      1.0   0.2946     C
C          0.0      1.0   0.4038     C
C          0.0      1.0   0.5962     C
O       0.0561   0.0561   0.0561     O
O       0.0561   0.0561   0.8317     O
O       0.0561   0.8317   0.0561     O
O       0.0766   0.2686   0.7314     O
O       0.0766   0.2686   0.9234     O
O       0.0766   0.7314   0.2686     O
O       0.0766   0.7314   0.9234     O
O       0.0766   0.9234   0.2686     O
O       0.0766   0.9234   0.7314     O
C       0.0802   0.4484   0.5516     C
C       0.0802   0.4484   0.9198     C
C       0.0802   0.5516   0.4484     C
C       0.0802   0.5516   0.9198     C
C       0.0802   0.9198   0.4484     C
C       0.0802   0.9198   0.5516     C
Zr      0.1204   0.1204   0.8796    Zr
Zr      0.1204   0.8796   0.1204    Zr
Zr      0.1204   0.8796   0.8796    Zr
H      0.14751  0.40954  0.59046     H
H      0.14751  0.40954  0.85249     H
H      0.14751  0.59046  0.40954     H
H      0.14751  0.59046  0.85249     H
H      0.14751  0.85249  0.40954     H
H      0.14751  0.85249  0.59046     H
O       0.1683   0.9439   0.9439     O
O       0.2686   0.0766   0.7314     O
O       0.2686   0.0766   0.9234     O
O       0.2686   0.7314   0.0766     O
O       0.2686   0.7314   0.9234     O
O       0.2686   0.9234   0.0766     O
O       0.2686   0.9234   0.7314     O
C       0.2946      0.0   0.7054     C
C       0.2946      0.0      1.0     C
C       0.2946   0.7054      0.0     C
C       0.4038   0.5962      0.0     C
C       0.4038      1.0   0.5962     C
C       0.4038      1.0      1.0     C
H      0.40954  0.14751  0.59046     H
H      0.40954  0.14751  0.85249     H
H      0.40954  0.59046  0.14751     H
H      0.40954  0.59046  0.85249     H
H      0.40954  0.85249  0.14751     H
H      0.40954  0.85249  0.59046     H
C       0.4484   0.0802   0.5516     C
C       0.4484   0.0802   0.9198     C
C       0.4484   0.5516   0.0802     C
C       0.4484   0.5516   0.9198     C
C       0.4484   0.9198   0.0802     C
C       0.4484   0.9198   0.5516     C
C       0.5516   0.0802   0.4484     C
C       0.5516   0.0802   0.9198     C
C       0.5516   0.4484   0.0802     C
C       0.5516   0.4484   0.9198     C
C       0.5516   0.9198   0.0802     C
C       0.5516   0.9198   0.4484     C
H      0.59046  0.14751  0.40954     H
H      0.59046  0.14751  0.85249     H
H      0.59046  0.40954  0.14751     H
H      0.59046  0.40954  0.85249     H
H      0.59046  0.85249  0.14751     H
H      0.59046  0.85249  0.40954     H
C       0.5962      0.0      0.0     C
C       0.5962      0.0   0.4038     C
C       0.5962   0.4038      0.0     C
C       0.7054   0.2946      0.0     C
C       0.7054      1.0   0.2946     C
C       0.7054      1.0      1.0     C
O       0.7314   0.0766   0.2686     O
O       0.7314   0.0766   0.9234     O
O       0.7314   0.2686   0.0766     O
O       0.7314   0.2686   0.9234     O
O       0.7314   0.9234   0.0766     O
O       0.7314   0.9234   0.2686     O
O       0.8317   0.0561   0.0561     O
H      0.85249  0.14751  0.40954     H
H      0.85249  0.14751  0.59046     H
H      0.85249  0.40954  0.14751     H
H      0.85249  0.40954  0.59046     H
H      0.85249  0.59046  0.14751     H
H      0.85249  0.59046  0.40954     H
Zr      0.8796   0.1204   0.1204    Zr
Zr      0.8796   0.1204   0.8796    Zr
Zr      0.8796   0.8796   0.1204    Zr
C       0.9198   0.0802   0.4484     C
C       0.9198   0.0802   0.5516     C
C       0.9198   0.4484   0.0802     C
C       0.9198   0.4484   0.5516     C
C       0.9198   0.5516   0.0802     C
C       0.9198   0.5516   0.4484     C
O       0.9234   0.0766   0.2686     O
O       0.9234   0.0766   0.7314     O
O       0.9234   0.2686   0.0766     O
O       0.9234   0.2686   0.7314     O
O       0.9234   0.7314   0.0766     O
O       0.9234   0.7314   0.2686     O
O       0.9439   0.1683   0.9439     O
O       0.9439   0.9439   0.1683     O
O       0.9439   0.9439   0.9439     O
