data_I
_chemical_name_common  '/home/zhangsd/repos/MofS-CGCNN/ML/data/WS24/clean_cifs/RUYVIS'
_cell_length_a 35.24200
_cell_length_b 35.24200
_cell_length_c 13.49300
_cell_angle_alpha 90.00000
_cell_angle_beta  90.00000
_cell_angle_gamma 120.00000
_space_group_name_H-M_alt      'P 1'


loop_
_space_group_symop_operation_xyz
  'x, y, z' 

loop_
_atom_site_label
_atom_site_fract_x
_atom_site_fract_y
_atom_site_fract_z
_atom_site_type_symbol
Eu         0.0  0.32428      0.0    Eu
C          0.0  0.41468      0.5     C
C          0.0  0.45639      0.5     C
C          0.0  0.53363      0.5     C
C          0.0    0.574      0.5     C
C          0.0  0.60693      0.5     C
C          0.0   0.6473      0.5     C
C          0.0   0.7245      0.5     C
H          0.0  0.75288      0.5     H
C      0.00333  0.44597  0.81223     C
O      0.00356  0.38028  0.83176     O
C      0.00534  0.48547  0.80558     C
Eu     0.00905  0.34239  0.66667    Eu
O      0.01563  0.28223   0.3873     O
C      0.01854  0.64621  0.83557     C
C      0.01937  0.68604  0.83333     C
C      0.01978  0.62766  0.16443     C
C      0.02022  0.48387  0.57646     C
C      0.02022  0.52275  0.57646     C
O      0.02031  0.40756  0.56667     O
C      0.02046  0.70567   0.1689     C
H      0.02116  0.73414  0.17053     H
C      0.02193   0.5877  0.15734     C
C      0.02362  0.55623  0.15176     C
C      0.02572  0.51709  0.14482     C
H      0.02598  0.44123   0.7761     H
H      0.02946  0.50957  0.76459     H
C      0.02969   0.4432  0.13172     C
C      0.03184  0.40324  0.12463     C
H      0.03498  0.47574  0.63227     H
H      0.03498    0.543  0.63227     H
C      0.03807   0.3015  0.45797     C
C        0.039  0.68713  0.49777     C
C        0.039  0.72545  0.49777     C
O      0.04338  0.32977  0.16509     O
H      0.04631  0.64551   0.8372     H
O      0.04694   0.3369  0.50158     O
O      0.05111  0.40007  0.05396     O
O      0.05391  0.31302      0.9     O
C      0.05783  0.66667  0.16667     C
C      0.05874  0.51766  0.08877     C
C      0.05878  0.70567   0.1689     C
C      0.05974  0.72641  0.83333     C
C      0.06075  0.48017  0.08212     C
H      0.06198  0.24846  0.37447     H
O      0.06674  0.38444  0.27937     O
H      0.06747  0.68783  0.49614     H
C      0.06991  0.36517   0.2087     C
O      0.07422  0.35365  0.76667     O
C      0.07896  0.76756  0.49068     C
C      0.08018  0.30365  0.46506     C
C      0.08134  0.33333  0.83333     C
H      0.08139  0.54505  0.05263     H
H      0.08191  0.30735  0.10943     H
H      0.08488  0.48019  0.04113     H
C      0.08609  0.27259  0.41546     C
H      0.08621  0.66667  0.16667     H
C      0.09266  0.75933  0.83333     C
C      0.10089  0.74563  0.17599     C
H      0.10743  0.29836  0.96561     H
H      0.10789  0.35932  0.55724     H
C       0.1093     0.33  0.14556     C
C      0.10987  0.36302  0.20161     C
C      0.11043  0.80072   0.4851     C
C      0.11263  0.33667  0.52111     C
H      0.12161  0.86967  0.38597     H
C      0.12306  0.33333  0.83333     C
H      0.12366  0.82531  0.96561     H
C      0.12559   0.2746  0.42211     C
C      0.13032  0.31312   0.9098     C
H      0.13033  0.25195  0.38597     H
C      0.13304  0.79971  0.83333     C
C      0.13405   0.7771  0.18157     C
H      0.14241  0.36831  0.70106     H
C      0.14391   0.8308   0.9098     C
H      0.14677  0.30387  0.09792     H
C      0.14679  0.32799  0.13891     C
C      0.14684  0.39408  0.25121     C
H      0.14686  0.41821   0.2922     H
C        0.149  0.87441  0.42211     C
C      0.14957  0.84196  0.47816     C
C      0.15054  0.35355  0.75687     C
C      0.15213  0.33868  0.52776     C
H       0.1571  0.85323  0.09792     H
C      0.15804  0.30762  0.47816     C
H      0.15864  0.79033  0.70106     H
C      0.16413  0.81058  0.75687     C
C       0.1692  0.31312   0.9098     C
H      0.17469  0.29836  0.96561     H
C      0.17529  0.81624  0.18851     C
H      0.17623   0.3628  0.56875     H
C       0.1812  0.85321  0.13891     C
C      0.18279  0.86968   0.9098     C
C      0.18376  0.35905  0.18851     C
C      0.18433  0.39207  0.24456     C
H      0.18647  0.93802  0.37447     H
C      0.18649  0.91391  0.41546     C
C      0.18654  0.84787  0.52776     C
H      0.18656  0.82377  0.56875     H
C      0.18942  0.35355  0.75687     C
H      0.19092  0.89257  0.96561     H
C      0.19928  0.30972   0.4851     C
C      0.20029  0.33333  0.83333     C
H        0.203  0.78828   0.2807     H
C      0.20301  0.84946  0.75687     C
C      0.20774  0.81567  0.24456     C
H      0.20967  0.36831  0.70106     H
C      0.21027  0.87694  0.83333     C
H      0.21172  0.41472   0.2807     H
C       0.2207   0.8907  0.14556     C
C       0.2229  0.35695  0.18157     C
C      0.22346  0.91982  0.46506     C
C      0.22403  0.88737  0.52111     C
H      0.22544  0.91809  0.10943     H
H       0.2259  0.85759  0.70106     H
C      0.23244  0.31141  0.49068     C
C      0.24067  0.33333  0.83333     C
H      0.24712  0.24712      0.5     H
C      0.24724  0.85316  0.25121     C
H      0.24846  0.06198  0.62553     H
H      0.25142  0.89211  0.55724     H
H      0.25195  0.13033  0.61403     H
C      0.25199  0.91866  0.83333     C
C      0.25315  0.89013  0.20161     C
C      0.25437  0.35526  0.17599     C
O      0.25911  0.94609      0.9     O
C      0.26342  0.96193  0.45797     C
H      0.26586  0.28702  0.17053     H
O      0.26659  0.98437   0.3873     O
H      0.27135  0.85314   0.2922     H
C      0.27259  0.08609  0.58454     C
C      0.27359  0.33333  0.83333     C
C      0.27455  0.31356  0.49777     C
C       0.2746  0.12559  0.57789     C
C       0.2755   0.2755      0.5     C
O      0.27942  0.92578  0.76667     O
O      0.28223  0.01563   0.6127     O
O      0.28639  0.95662  0.16509     O
H      0.28702  0.26586  0.82947     H
O      0.28995  0.95306  0.50158     O
C      0.29433  0.31479   0.1689     C
C      0.29433  0.35311   0.1689     C
C      0.29526  0.93009   0.2087     C
H      0.29836  0.10743  0.03439     H
H      0.29836  0.17469  0.03439     H
C       0.3015  0.03807  0.54203     C
C      0.30365  0.08018  0.53494     C
H      0.30387  0.14677  0.90208     H
H      0.30735  0.08191  0.89057     H
C      0.30762  0.15804  0.52184     C
C      0.30972  0.19928   0.5149     C
C      0.31141  0.23244  0.50932     C
H      0.31217  0.37965  0.49614     H
C      0.31287  0.35188  0.49777     C
O      0.31302  0.05391      0.1     O
C      0.31312  0.13032   0.0902     C
C      0.31312   0.1692   0.0902     C
C      0.31356  0.27455  0.50223     C
C      0.31396  0.33333  0.83333     C
C      0.31479  0.29433   0.8311     C
O       0.3177  0.93326  0.27937     O
Eu     0.32428      0.0      0.0    Eu
C      0.32799  0.14679  0.86109     C
O      0.32977  0.04338  0.83491     O
C         0.33   0.1093  0.85444     C
C      0.33333  0.08134  0.16667     C
C      0.33333  0.12306  0.16667     C
C      0.33333  0.20029  0.16667     C
C      0.33333  0.24067  0.16667     C
C      0.33333  0.27359  0.16667     C
C      0.33333  0.31396  0.16667     C
C      0.33333  0.39116  0.16667     C
H      0.33333  0.41954  0.16667     H
Eu     0.33333  0.99095  0.66667    Eu
C      0.33667  0.11263  0.47889     C
O       0.3369  0.04694  0.49842     O
C      0.33868  0.15213  0.47224     C
Eu     0.34239  0.00905  0.33333    Eu
O      0.34897  0.94889  0.05396     O
C      0.35188  0.31287  0.50223     C
C       0.3527   0.3527      0.5     C
C      0.35311  0.29433   0.8311     C
C      0.35355  0.15054  0.24313     C
C      0.35355  0.18942  0.24313     C
O      0.35365  0.07422  0.23333     O
C      0.35379  0.37234  0.83557     C
H      0.35449  0.40081   0.8372     H
C      0.35526  0.25437  0.82401     C
C      0.35695   0.2229  0.81843     C
C      0.35905  0.18376  0.81149     C
H      0.35932  0.10789  0.44276     H
H       0.3628  0.17623  0.43125     H
C      0.36302  0.10987  0.79839     C
C      0.36517  0.06991   0.7913     C
H      0.36831  0.14241  0.29894     H
H      0.36831  0.20967  0.29894     H
C      0.37141  0.96816  0.12463     C
C      0.37234  0.35379  0.16443     C
C      0.37234  0.39211  0.16443     C
O      0.37671  0.99644  0.83176     O
H      0.37965  0.31217  0.50386     H
O      0.38028  0.00356  0.16824     O
O      0.38444  0.06674  0.72063     O
O      0.38724  0.97969  0.56667     O
C      0.39116  0.33333  0.83333     C
C      0.39207  0.18433  0.75544     C
C      0.39211  0.37234  0.83557     C
C      0.39307  0.39307      0.5     C
C      0.39408  0.14684  0.74879     C
H      0.39532  0.91512  0.04113     H
O      0.40007  0.05111  0.94604     O
H      0.40081  0.35449   0.1628     H
C      0.40324  0.03184  0.87537     C
O      0.40756  0.02031  0.43333     O
C       0.4123  0.43422  0.15734     C
C      0.41352  0.97031  0.13172     C
C      0.41468      0.0      0.5     C
H      0.41472  0.21172   0.7193     H
H      0.41524  0.97402   0.7761     H
H      0.41821  0.14686   0.7078     H
C      0.41943  0.93925  0.08212     C
H      0.41954  0.33333  0.83333     H
C      0.42599  0.42599      0.5     C
C      0.43422   0.4123  0.84266     C
H      0.44077  0.96502  0.63227     H
H      0.44123  0.02598   0.2239     H
C      0.44263  0.99667  0.81223     C
C       0.4432  0.02969  0.86828     C
C      0.44377  0.46738  0.15176     C
C      0.44597  0.00333  0.18777     C
H      0.45495  0.53633  0.05263     H
C       0.4564      0.0      0.5     C
H        0.457  0.49197  0.63227     H
C      0.45893  0.94126  0.08877     C
C      0.46366  0.97978  0.57646     C
H      0.46367  0.91861  0.05263     H
C      0.46637  0.46637      0.5     C
C      0.46738  0.44377  0.84824     C
H      0.47574  0.03498  0.36773     H
C      0.47725  0.49746  0.57646     C
H       0.4801  0.97054  0.76459     H
C      0.48012  0.99466  0.80558     C
C      0.48017  0.06075  0.91788     C
H      0.48019  0.08488  0.95887     H
C      0.48234  0.54107  0.08877     C
C      0.48291  0.50862  0.14482     C
C      0.48387  0.02022  0.42354     C
C      0.48547  0.00534  0.19442     C
H      0.49043   0.5199  0.76459     H
C      0.49138  0.97428  0.14482     C
H      0.49197    0.457  0.36773     H
C      0.49746  0.47725  0.42354     C
C      0.50254  0.97978  0.57646     C
H      0.50803  0.96502  0.63227     H
C      0.50862  0.48291  0.85518     C
H      0.50957  0.02946  0.23541     H
C      0.51453  0.51988  0.80558     C
C      0.51613  0.53634  0.57646     C
C      0.51709  0.02572  0.85518     C
C      0.51766  0.05874  0.91123     C
H      0.51981  0.60468  0.04113     H
C      0.51983  0.58057  0.08212     C
C      0.51988  0.51453  0.19442     C
H       0.5199  0.49043  0.23541     H
C      0.52275  0.02022  0.42354     C
H      0.52426  0.55923  0.63227     H
C      0.53262  0.97638  0.15176     C
C      0.53363      0.0      0.5     C
H      0.53633  0.45495  0.94737     H
C      0.53634  0.51613  0.42354     C
C      0.54107  0.48234  0.91123     C
H        0.543  0.03498  0.36773     H
C       0.5436   0.5436      0.5     C
H      0.54505  0.08139  0.94737     H
C      0.55403  0.55737  0.81223     C
C      0.55623  0.02362  0.84824     C
C       0.5568  0.58648  0.13172     C
C      0.55737  0.55403  0.18777     C
H      0.55877  0.58476   0.7761     H
H      0.55923  0.52426  0.36773     H
C      0.56578  0.97807  0.15734     C
C        0.574      0.0      0.5     C
H      0.58046  0.91379  0.16667     H
C      0.58057  0.51983  0.91788     C
H      0.58179  0.72865   0.2922     H
H      0.58476  0.55877   0.2239     H
H      0.58528    0.797   0.2807     H
C      0.58532  0.58532      0.5     C
C      0.58648   0.5568  0.86828     C
C       0.5877  0.02193  0.84266     C
O      0.59244  0.61276  0.56667     O
C      0.59676  0.62859  0.12463     C
H      0.59919  0.95369   0.8372     H
O      0.59993  0.65103  0.05396     O
H      0.60468  0.51981  0.95887     H
C      0.60592  0.75276  0.25121     C
C      0.60693      0.0      0.5     C
C      0.60789  0.98022  0.16443     C
C      0.60793  0.79226  0.24456     C
C      0.60884  0.94217  0.16667     C
O      0.61276  0.59244  0.43333     O
O      0.61556   0.6823  0.27937     O
O      0.61972  0.62329  0.83176     O
H      0.62035  0.93253  0.49614     H
O      0.62329  0.61972  0.16824     O
C      0.62766  0.01978  0.83557     C
C      0.62766  0.98146  0.83557     C
C      0.62859  0.59676  0.87537     C
H      0.63169   0.7741  0.70106     H
H      0.63169  0.84136  0.70106     H
C      0.63483  0.70474   0.2087     C
C      0.63698  0.74685  0.20161     C
H       0.6372  0.81344  0.56875     H
H      0.64068  0.74858  0.55724     H
C      0.64095  0.82471  0.18851     C
C      0.64305  0.86595  0.18157     C
C      0.64474  0.89911  0.17599     C
H      0.64551  0.04631   0.1628     H
C      0.64621  0.01854  0.16443     C
O      0.64635  0.72058  0.76667     O
C      0.64645  0.79699  0.75687     C
C      0.64645  0.83587  0.75687     C
C      0.64689  0.94122   0.1689     C
C       0.6473      0.0      0.5     C
C      0.64812    0.961  0.49777     C
O      0.65103  0.59993  0.94604     O
Eu     0.65761  0.66667  0.66667    Eu
C      0.66132  0.81346  0.52776     C
O       0.6631  0.71005  0.50158     O
C      0.66333  0.77597  0.52111     C
C      0.66667  0.05783  0.83333     C
H      0.66667  0.08621  0.83333     H
Eu     0.66667  0.65761  0.33333    Eu
C      0.66667  0.74801  0.83333     C
C      0.66667  0.78973  0.83333     C
C      0.66667  0.86696  0.83333     C
C      0.66667  0.90734  0.83333     C
C      0.66667  0.94026  0.83333     C
C      0.66667  0.98063  0.83333     C
C         0.67   0.7793  0.14556     C
O      0.67023  0.71361  0.16509     O
C      0.67201   0.8188  0.13891     C
Eu     0.67572  0.67572      0.0    Eu
O       0.6823  0.61556  0.72063     O
C      0.68521  0.97954   0.1689     C
C      0.68604  0.01937  0.16667     C
C      0.68644    0.961  0.49777     C
C      0.68688  0.81721   0.9098     C
C      0.68688  0.85609   0.9098     C
O      0.68698  0.74089      0.9     O
C      0.68713    0.039  0.50223     C
H      0.68783  0.06747  0.50386     H
C      0.68859  0.92104  0.49068     C
C      0.69028  0.88957   0.4851     C
C      0.69238  0.85043  0.47816     C
H      0.69265  0.77456  0.10943     H
H      0.69613   0.8429  0.09792     H
C      0.69635  0.77654  0.46506     C
C       0.6985  0.73658  0.45797     C
H      0.70164  0.80908  0.96561     H
H      0.70164  0.87634  0.96561     H
C      0.70474  0.63483   0.7913     C
C      0.70567  0.02046   0.8311     C
C      0.70567  0.05878   0.8311     C
O      0.71005   0.6631  0.49842     O
H      0.71298  0.97884  0.17053     H
O      0.71361  0.67023  0.83491     O
O      0.71777  0.73341   0.3873     O
O      0.72058  0.64635  0.23333     O
C       0.7245      0.0      0.5     C
C       0.7254    0.851  0.42211     C
C      0.72545    0.039  0.50223     C
C      0.72641  0.05974  0.16667     C
C      0.72741  0.81351  0.41546     C
H      0.72865  0.58179   0.7078     H
O      0.73341  0.71777   0.6127     O
H      0.73414  0.02116  0.82947     H
C      0.73658   0.6985  0.54203     C
O      0.74089  0.68698      0.1     O
C      0.74563  0.10089  0.82401     C
C      0.74685  0.63698  0.79839     C
C      0.74801  0.66667  0.16667     C
H      0.74805  0.87839  0.38597     H
H      0.74858  0.64068  0.44276     H
H      0.75154  0.81353  0.37447     H
C      0.75276  0.60592  0.74879     C
H      0.75288      0.0      0.5     H
C      0.75933  0.09266  0.16667     C
C      0.76756  0.07896  0.50932     C
H       0.7741  0.63169  0.29894     H
H      0.77456  0.69265  0.89057     H
C      0.77597  0.66333  0.47889     C
C      0.77654  0.69635  0.53494     C
C       0.7771  0.13405  0.81843     C
C       0.7793     0.67  0.85444     C
H      0.78828    0.203   0.7193     H
C      0.78973  0.66667  0.16667     C
H      0.79033  0.15864  0.29894     H
C      0.79226  0.60793  0.75544     C
C      0.79699  0.64645  0.24313     C
H        0.797  0.58528   0.7193     H
C      0.79971  0.13304  0.16667     C
C      0.80072  0.11043   0.5149     C
H      0.80908  0.70164  0.03439     H
C      0.81058  0.16413  0.24313     C
H      0.81344   0.6372  0.43125     H
C      0.81346  0.66132  0.47224     C
C      0.81351  0.72741  0.58454     C
H      0.81353  0.75154  0.62553     H
C      0.81567  0.20774  0.75544     C
C      0.81624  0.17529  0.81149     C
C      0.81721  0.68688   0.0902     C
C       0.8188  0.67201  0.86109     C
H      0.82377  0.18656  0.43125     H
C      0.82471  0.64095  0.81149     C
H      0.82531  0.12366  0.03439     H
C       0.8308  0.14391   0.0902     C
C      0.83587  0.64645  0.24313     C
H      0.84136  0.63169  0.29894     H
C      0.84196  0.14957  0.52184     C
H       0.8429  0.69613  0.90208     H
C      0.84787  0.18654  0.47224     C
C      0.84946  0.20301  0.24313     C
C      0.85043  0.69238  0.52184     C
C        0.851   0.7254  0.57789     C
H      0.85314  0.27135   0.7078     H
C      0.85316  0.24724  0.74879     C
C      0.85321   0.1812  0.86109     C
H      0.85323   0.1571  0.90208     H
C      0.85609  0.68688   0.0902     C
H      0.85759   0.2259  0.29894     H
C      0.86595  0.64305  0.81843     C
C      0.86696  0.66667  0.16667     C
H      0.86967  0.12161  0.61403     H
C      0.86968  0.18279   0.0902     C
C      0.87441    0.149  0.57789     C
H      0.87634  0.70164  0.03439     H
C      0.87694  0.21027  0.16667     C
H      0.87839  0.74805  0.61403     H
C      0.88737  0.22403  0.47889     C
C      0.88957  0.69028   0.5149     C
C      0.89013  0.25315  0.79839     C
C       0.8907   0.2207  0.85444     C
H      0.89211  0.25142  0.44276     H
H      0.89257  0.19092  0.03439     H
C      0.89911  0.64474  0.82401     C
C      0.90734  0.66667  0.16667     C
H      0.91379  0.58046  0.83333     H
C      0.91391  0.18649  0.58454     C
H      0.91512  0.39532  0.95887     H
H      0.91809  0.22544  0.89057     H
H      0.91861  0.46367  0.94737     H
C      0.91866  0.25199  0.16667     C
C      0.91982  0.22346  0.53494     C
C      0.92104  0.68859  0.50932     C
O      0.92578  0.27942  0.23333     O
C      0.93009  0.29526   0.7913     C
H      0.93253  0.62035  0.50386     H
O      0.93326   0.3177  0.72063     O
H      0.93802  0.18647  0.62553     H
C      0.93925  0.41943  0.91788     C
C      0.94026  0.66667  0.16667     C
C      0.94122  0.64689   0.8311     C
C      0.94126  0.45893  0.91123     C
C      0.94217  0.60884  0.83333     C
O      0.94609  0.25911      0.1     O
O      0.94889  0.34897  0.94604     O
O      0.95306  0.28995  0.49842     O
H      0.95369  0.59919   0.1628     H
O      0.95662  0.28639  0.83491     O
C        0.961  0.64812  0.50223     C
C        0.961  0.68644  0.50223     C
C      0.96193  0.26342  0.54203     C
H      0.96502  0.44077  0.36773     H
H      0.96502  0.50803  0.36773     H
C      0.96816  0.37141  0.87537     C
C      0.97031  0.41352  0.86828     C
H      0.97054   0.4801  0.23541     H
H      0.97402  0.41524   0.2239     H
C      0.97428  0.49138  0.85518     C
C      0.97638  0.53262  0.84824     C
C      0.97807  0.56578  0.84266     C
H      0.97884  0.71298  0.82947     H
C      0.97954  0.68521   0.8311     C
O      0.97969  0.38724  0.43333     O
C      0.97978  0.46366  0.42354     C
C      0.97978  0.50254  0.42354     C
C      0.98022  0.60789  0.83557     C
C      0.98063  0.66667  0.16667     C
C      0.98146  0.62766  0.16443     C
O      0.98437  0.26659   0.6127     O
Eu     0.99095  0.33333  0.33333    Eu
C      0.99466  0.48012  0.19442     C
O      0.99644  0.37671  0.16824     O
C      0.99667  0.44263  0.18777     C
