data_I
_chemical_name_common  '/home/zhangsd/repos/MofS-CGCNN/ML/data/WS24/clean_cifs/SALXEL'
_cell_length_a 24.99190
_cell_length_b 24.99190
_cell_length_c 24.76880
_cell_angle_alpha 90.00000
_cell_angle_beta  90.00000
_cell_angle_gamma 120.00000
_space_group_name_H-M_alt      'P 1'


loop_
_space_group_symop_operation_xyz
  'x, y, z' 

loop_
_atom_site_label
_atom_site_fract_x
_atom_site_fract_y
_atom_site_fract_z
_atom_site_type_symbol
O       0.0013   0.4487   0.1489     O
O       0.0013   0.4487   0.3511     O
O       0.0013   0.5526   0.1489     O
O       0.0013   0.5526   0.3511     O
O       0.0134   0.4438    0.542     O
O       0.0134   0.4438    0.958     O
O       0.0134   0.5696    0.542     O
O       0.0134   0.5696    0.958     O
O       0.0345   0.4105     0.25     O
O       0.0345    0.624     0.25     O
Zr     0.03711  0.51856  0.59274    Zr
Zr     0.03711  0.51856  0.90726    Zr
C        0.046    0.439   0.1551     C
C        0.046    0.439   0.3449     C
C        0.046    0.607   0.1551     C
C        0.046    0.607   0.3449     C
O       0.0606   0.5303   0.0658     O
O       0.0606   0.5303   0.4342     O
C        0.069   0.4186   0.2034     C
C        0.069   0.4186   0.2966     C
C        0.069   0.6504   0.2034     C
C        0.069   0.6504   0.2966     C
O       0.0692   0.4383  0.10905     O
O       0.0692   0.4383  0.39095     O
O       0.0692   0.6309  0.10905     O
O       0.0692   0.6309  0.39095     O
Zr     0.08016  0.46909  0.02522    Zr
Zr     0.08016  0.46909  0.47478    Zr
Zr     0.08016  0.61107  0.02522    Zr
Zr     0.08016  0.61107  0.47478    Zr
O       0.0896   0.5448   0.5176     O
O       0.0896   0.5448   0.9824     O
O       0.1111   0.5044   0.6082     O
O       0.1111   0.5044   0.8918     O
O       0.1111   0.6067   0.6082     O
O       0.1111   0.6067   0.8918     O
C       0.1203   0.4116   0.2209     C
C       0.1203   0.4116   0.2791     C
C       0.1203   0.7087   0.2209     C
C       0.1203   0.7087   0.2791     C
O       0.1319   0.4635   0.5386     O
O       0.1319   0.4635   0.9614     O
O       0.1319   0.6684   0.5386     O
O       0.1319   0.6684   0.9614     O
C       0.1442   0.4824   0.5889     C
C       0.1442   0.4824   0.9111     C
C       0.1442   0.6618   0.5889     C
C       0.1442   0.6618   0.9111     C
C       0.2036   0.4943   0.6184     C
C       0.2036   0.4943   0.8816     C
C       0.2036   0.7093   0.6184     C
C       0.2036   0.7093   0.8816     C
C       0.2309   0.5235   0.6693     C
C       0.2309   0.5235   0.8307     C
C       0.2309   0.7074   0.6693     C
C       0.2309   0.7074   0.8307     C
O      0.23965   0.4793   0.5853     O
O      0.23965   0.4793   0.9147     O
O      0.23965  0.76035   0.5853     O
O      0.23965  0.76035   0.9147     O
C       0.2907   0.4943   0.6184     C
C       0.2907   0.4943   0.8816     C
C       0.2907   0.7964   0.6184     C
C       0.2907   0.7964   0.8816     C
C       0.2913   0.4116   0.2209     C
C       0.2913   0.4116   0.2791     C
C       0.2913   0.8797   0.2209     C
C       0.2913   0.8797   0.2791     C
C       0.2926   0.5235   0.6693     C
C       0.2926   0.5235   0.8307     C
C       0.2926   0.7691   0.6693     C
C       0.2926   0.7691   0.8307     C
O       0.3316   0.4635   0.5386     O
O       0.3316   0.4635   0.9614     O
O       0.3316   0.8681   0.5386     O
O       0.3316   0.8681   0.9614     O
C       0.3382   0.4824   0.5889     C
C       0.3382   0.4824   0.9111     C
C       0.3382   0.8558   0.5889     C
C       0.3382   0.8558   0.9111     C
C       0.3496   0.4186   0.2034     C
C       0.3496   0.4186   0.2966     C
C       0.3496    0.931   0.2034     C
C       0.3496    0.931   0.2966     C
O       0.3691   0.4383  0.10905     O
O       0.3691   0.4383  0.39095     O
O       0.3691   0.9308  0.10905     O
O       0.3691   0.9308  0.39095     O
O        0.376   0.4105     0.25     O
O        0.376   0.9655     0.25     O
Zr     0.38893  0.46909  0.02522    Zr
Zr     0.38893  0.46909  0.47478    Zr
Zr     0.38893  0.91984  0.02522    Zr
Zr     0.38893  0.91984  0.47478    Zr
C        0.393    0.439   0.1551     C
C        0.393    0.439   0.3449     C
C        0.393    0.954   0.1551     C
C        0.393    0.954   0.3449     C
O       0.3933   0.5044   0.6082     O
O       0.3933   0.5044   0.8918     O
O       0.3933   0.8889   0.6082     O
O       0.3933   0.8889   0.8918     O
O       0.4105   0.0345     0.75     O
O       0.4105    0.376     0.75     O
C       0.4116   0.1203   0.7209     C
C       0.4116   0.1203   0.7791     C
C       0.4116   0.2913   0.7209     C
C       0.4116   0.2913   0.7791     C
C       0.4186    0.069   0.7034     C
C       0.4186    0.069   0.7966     C
C       0.4186   0.3496   0.7034     C
C       0.4186   0.3496   0.7966     C
O       0.4304   0.4438    0.542     O
O       0.4304   0.4438    0.958     O
O       0.4304   0.9866    0.542     O
O       0.4304   0.9866    0.958     O
O       0.4383   0.0692  0.60905     O
O       0.4383   0.0692  0.89095     O
O       0.4383   0.3691  0.60905     O
O       0.4383   0.3691  0.89095     O
C        0.439    0.046   0.6551     C
C        0.439    0.046   0.8449     C
C        0.439    0.393   0.6551     C
C        0.439    0.393   0.8449     C
O       0.4438   0.0134    0.042     O
O       0.4438   0.0134    0.458     O
O       0.4438   0.4304    0.042     O
O       0.4438   0.4304    0.458     O
O       0.4474   0.4487   0.1489     O
O       0.4474   0.4487   0.3511     O
O       0.4474   0.9987   0.1489     O
O       0.4474   0.9987   0.3511     O
O       0.4487   0.0013   0.6489     O
O       0.4487   0.0013   0.8511     O
O       0.4487   0.4474   0.6489     O
O       0.4487   0.4474   0.8511     O
O       0.4552   0.5448   0.5176     O
O       0.4552   0.5448   0.9824     O
O       0.4552   0.9104   0.5176     O
O       0.4552   0.9104   0.9824     O
O       0.4635   0.1319   0.0386     O
O       0.4635   0.1319   0.4614     O
O       0.4635   0.3316   0.0386     O
O       0.4635   0.3316   0.4614     O
Zr     0.46909  0.08016  0.52522    Zr
Zr     0.46909  0.08016  0.97478    Zr
Zr     0.46909  0.38893  0.52522    Zr
Zr     0.46909  0.38893  0.97478    Zr
O       0.4697   0.5303   0.0658     O
O       0.4697   0.5303   0.4342     O
O       0.4697   0.9394   0.0658     O
O       0.4697   0.9394   0.4342     O
C       0.4765   0.7074   0.6693     C
C       0.4765   0.7074   0.8307     C
C       0.4765   0.7691   0.6693     C
C       0.4765   0.7691   0.8307     C
O       0.4793  0.23965   0.0853     O
O       0.4793  0.23965   0.4147     O
Zr     0.48144  0.51856  0.59274    Zr
Zr     0.48144  0.51856  0.90726    Zr
Zr     0.48144  0.96289  0.59274    Zr
Zr     0.48144  0.96289  0.90726    Zr
C       0.4824   0.1442   0.0889     C
C       0.4824   0.1442   0.4111     C
C       0.4824   0.3382   0.0889     C
C       0.4824   0.3382   0.4111     C
C       0.4943   0.2036   0.1184     C
C       0.4943   0.2036   0.3816     C
C       0.4943   0.2907   0.1184     C
C       0.4943   0.2907   0.3816     C
O       0.4956   0.6067   0.6082     O
O       0.4956   0.6067   0.8918     O
O       0.4956   0.8889   0.6082     O
O       0.4956   0.8889   0.8918     O
O       0.5044   0.1111   0.1082     O
O       0.5044   0.1111   0.3918     O
O       0.5044   0.3933   0.1082     O
O       0.5044   0.3933   0.3918     O
C       0.5057   0.7093   0.6184     C
C       0.5057   0.7093   0.8816     C
C       0.5057   0.7964   0.6184     C
C       0.5057   0.7964   0.8816     C
C       0.5176   0.6618   0.5889     C
C       0.5176   0.6618   0.9111     C
C       0.5176   0.8558   0.5889     C
C       0.5176   0.8558   0.9111     C
Zr     0.51856  0.03711  0.09274    Zr
Zr     0.51856  0.03711  0.40726    Zr
Zr     0.51856  0.48144  0.09274    Zr
Zr     0.51856  0.48144  0.40726    Zr
O       0.5207  0.76035   0.5853     O
O       0.5207  0.76035   0.9147     O
C       0.5235   0.2309   0.1693     C
C       0.5235   0.2309   0.3307     C
C       0.5235   0.2926   0.1693     C
C       0.5235   0.2926   0.3307     C
O       0.5303   0.0606   0.5658     O
O       0.5303   0.0606   0.9342     O
O       0.5303   0.4697   0.5658     O
O       0.5303   0.4697   0.9342     O
Zr     0.53091  0.61107  0.02522    Zr
Zr     0.53091  0.61107  0.47478    Zr
Zr     0.53091  0.91984  0.02522    Zr
Zr     0.53091  0.91984  0.47478    Zr
O       0.5365   0.6684   0.5386     O
O       0.5365   0.6684   0.9614     O
O       0.5365   0.8681   0.5386     O
O       0.5365   0.8681   0.9614     O
O       0.5448   0.0896   0.0176     O
O       0.5448   0.0896   0.4824     O
O       0.5448   0.4552   0.0176     O
O       0.5448   0.4552   0.4824     O
O       0.5513   0.5526   0.1489     O
O       0.5513   0.5526   0.3511     O
O       0.5513   0.9987   0.1489     O
O       0.5513   0.9987   0.3511     O
O       0.5526   0.0013   0.6489     O
O       0.5526   0.0013   0.8511     O
O       0.5526   0.5513   0.6489     O
O       0.5526   0.5513   0.8511     O
O       0.5562   0.5696    0.542     O
O       0.5562   0.5696    0.958     O
O       0.5562   0.9866    0.542     O
O       0.5562   0.9866    0.958     O
C        0.561    0.607   0.1551     C
C        0.561    0.607   0.3449     C
C        0.561    0.954   0.1551     C
C        0.561    0.954   0.3449     C
O       0.5617   0.6309  0.10905     O
O       0.5617   0.6309  0.39095     O
O       0.5617   0.9308  0.10905     O
O       0.5617   0.9308  0.39095     O
O       0.5696   0.0134    0.042     O
O       0.5696   0.0134    0.458     O
O       0.5696   0.5562    0.042     O
O       0.5696   0.5562    0.458     O
C       0.5814   0.6504   0.2034     C
C       0.5814   0.6504   0.2966     C
C       0.5814    0.931   0.2034     C
C       0.5814    0.931   0.2966     C
C       0.5884   0.7087   0.2209     C
C       0.5884   0.7087   0.2791     C
C       0.5884   0.8797   0.2209     C
C       0.5884   0.8797   0.2791     C
O       0.5895    0.624     0.25     O
O       0.5895   0.9655     0.25     O
O       0.6067   0.1111   0.1082     O
O       0.6067   0.1111   0.3918     O
O       0.6067   0.4956   0.1082     O
O       0.6067   0.4956   0.3918     O
C        0.607    0.046   0.6551     C
C        0.607    0.046   0.8449     C
C        0.607    0.561   0.6551     C
C        0.607    0.561   0.8449     C
Zr     0.61107  0.08016  0.52522    Zr
Zr     0.61107  0.08016  0.97478    Zr
Zr     0.61107  0.53091  0.52522    Zr
Zr     0.61107  0.53091  0.97478    Zr
O        0.624   0.0345     0.75     O
O        0.624   0.5895     0.75     O
O       0.6309   0.0692  0.60905     O
O       0.6309   0.0692  0.89095     O
O       0.6309   0.5617  0.60905     O
O       0.6309   0.5617  0.89095     O
C       0.6504    0.069   0.7034     C
C       0.6504    0.069   0.7966     C
C       0.6504   0.5814   0.7034     C
C       0.6504   0.5814   0.7966     C
C       0.6618   0.1442   0.0889     C
C       0.6618   0.1442   0.4111     C
C       0.6618   0.5176   0.0889     C
C       0.6618   0.5176   0.4111     C
O       0.6684   0.1319   0.0386     O
O       0.6684   0.1319   0.4614     O
O       0.6684   0.5365   0.0386     O
O       0.6684   0.5365   0.4614     O
C       0.7074   0.2309   0.1693     C
C       0.7074   0.2309   0.3307     C
C       0.7074   0.4765   0.1693     C
C       0.7074   0.4765   0.3307     C
C       0.7087   0.1203   0.7209     C
C       0.7087   0.1203   0.7791     C
C       0.7087   0.5884   0.7209     C
C       0.7087   0.5884   0.7791     C
C       0.7093   0.2036   0.1184     C
C       0.7093   0.2036   0.3816     C
C       0.7093   0.5057   0.1184     C
C       0.7093   0.5057   0.3816     C
O      0.76035  0.23965   0.0853     O
O      0.76035  0.23965   0.4147     O
O      0.76035   0.5207   0.0853     O
O      0.76035   0.5207   0.4147     O
C       0.7691   0.2926   0.1693     C
C       0.7691   0.2926   0.3307     C
C       0.7691   0.4765   0.1693     C
C       0.7691   0.4765   0.3307     C
C       0.7964   0.2907   0.1184     C
C       0.7964   0.2907   0.3816     C
C       0.7964   0.5057   0.1184     C
C       0.7964   0.5057   0.3816     C
C       0.8558   0.3382   0.0889     C
C       0.8558   0.3382   0.4111     C
C       0.8558   0.5176   0.0889     C
C       0.8558   0.5176   0.4111     C
O       0.8681   0.3316   0.0386     O
O       0.8681   0.3316   0.4614     O
O       0.8681   0.5365   0.0386     O
O       0.8681   0.5365   0.4614     O
C       0.8797   0.2913   0.7209     C
C       0.8797   0.2913   0.7791     C
C       0.8797   0.5884   0.7209     C
C       0.8797   0.5884   0.7791     C
O       0.8889   0.3933   0.1082     O
O       0.8889   0.3933   0.3918     O
O       0.8889   0.4956   0.1082     O
O       0.8889   0.4956   0.3918     O
O       0.9104   0.4552   0.0176     O
O       0.9104   0.4552   0.4824     O
Zr     0.91984  0.38893  0.52522    Zr
Zr     0.91984  0.38893  0.97478    Zr
Zr     0.91984  0.53091  0.52522    Zr
Zr     0.91984  0.53091  0.97478    Zr
O       0.9308   0.3691  0.60905     O
O       0.9308   0.3691  0.89095     O
O       0.9308   0.5617  0.60905     O
O       0.9308   0.5617  0.89095     O
C        0.931   0.3496   0.7034     C
C        0.931   0.3496   0.7966     C
C        0.931   0.5814   0.7034     C
C        0.931   0.5814   0.7966     C
O       0.9394   0.4697   0.5658     O
O       0.9394   0.4697   0.9342     O
C        0.954    0.393   0.6551     C
C        0.954    0.393   0.8449     C
C        0.954    0.561   0.6551     C
C        0.954    0.561   0.8449     C
Zr     0.96289  0.48144  0.09274    Zr
Zr     0.96289  0.48144  0.40726    Zr
O       0.9655    0.376     0.75     O
O       0.9655   0.5895     0.75     O
O       0.9866   0.4304    0.042     O
O       0.9866   0.4304    0.458     O
O       0.9866   0.5562    0.042     O
O       0.9866   0.5562    0.458     O
O       0.9987   0.4474   0.6489     O
O       0.9987   0.4474   0.8511     O
O       0.9987   0.5513   0.6489     O
O       0.9987   0.5513   0.8511     O
