data_I
_chemical_name_common  '/home/zhangsd/repos/MofS-CGCNN/ML/data/WS24/clean_cifs/SETSIV'
_cell_length_a 14.45800
_cell_length_b 16.91530
_cell_length_c 16.91530
_cell_angle_alpha 120.00000
_cell_angle_beta  90.00000
_cell_angle_gamma 90.00000
_space_group_name_H-M_alt      'P 1'


loop_
_space_group_symop_operation_xyz
  'x, y, z' 

loop_
_atom_site_label
_atom_site_fract_x
_atom_site_fract_y
_atom_site_fract_z
_atom_site_type_symbol
Zn         0.0      0.0  0.65265    Zn
O          0.0  0.10266  0.63027     O
C          0.0  0.18138  0.70118     C
H          0.0   0.1845    0.544     H
O          0.0  0.19722  0.78012     O
O          0.0  0.21988   0.4171     O
C          0.0  0.24455   0.5935     C
C          0.0   0.2597  0.68225     C
C          0.0  0.29882   0.4802     C
C          0.0  0.31775  0.57745     C
Zn         0.0  0.34735  0.34735    Zn
C          0.0  0.34895  0.75545     C
H          0.0   0.3595   0.8155     H
O          0.0  0.36973  0.47239     O
C          0.0   0.4065  0.65105     C
O          0.0   0.4171  0.21988     O
C          0.0  0.42255   0.7403     C
H          0.0    0.456   0.6405     H
O          0.0  0.47239  0.36973     O
C          0.0   0.4802  0.29882     C
C          0.0   0.5198  0.81862     C
O          0.0  0.52761  0.89734     O
H          0.0    0.544   0.1845     H
C          0.0  0.57745  0.31775     C
O          0.0   0.5829  0.80278     O
C          0.0   0.5935  0.24455     C
O          0.0  0.63027  0.10266     O
H          0.0   0.6405    0.456     H
C          0.0  0.65105   0.4065     C
Zn         0.0  0.65265      1.0    Zn
C          0.0  0.68225   0.2597     C
C          0.0  0.70118  0.18138     C
C          0.0   0.7403  0.42255     C
C          0.0  0.75545  0.34895     C
O          0.0  0.78012  0.19722     O
O          0.0  0.80278   0.5829     O
H          0.0   0.8155   0.3595     H
C          0.0  0.81862   0.5198     C
O          0.0  0.89734  0.52761     O
N      0.11935      0.0  0.71833     N
N      0.11935  0.28167  0.28167     N
N      0.11935  0.71833      1.0     N
H        0.154   0.1263   0.7581     H
H        0.154   0.2419   0.3682     H
H        0.154   0.3682   0.2419     H
H        0.154   0.6318   0.8737     H
H        0.154   0.7581   0.1263     H
H        0.154   0.8737   0.6318     H
C       0.1728   0.0736    0.759     C
C       0.1728    0.241   0.3146     C
C       0.1728   0.3146    0.241     C
C       0.1728   0.6854   0.9264     C
C       0.1728    0.759   0.0736     C
C       0.1728   0.9264   0.6854     C
C       0.2522   0.0765   0.8013     C
C       0.2522   0.1987   0.2752     C
C       0.2522   0.2752   0.1987     C
C       0.2522   0.7248   0.9235     C
C       0.2522   0.8013   0.0765     C
C       0.2522   0.9235   0.7248     C
C       0.2822      0.0  0.80332     C
C       0.2822  0.19668  0.19668     C
C       0.2822  0.80332      0.0     C
H       0.2874   0.1304   0.8294     H
H       0.2874   0.1706    0.301     H
H       0.2874    0.301   0.1706     H
H       0.2874    0.699   0.8696     H
H       0.2874   0.8294   0.1304     H
H       0.2874   0.8696    0.699     H
C       0.3695      0.0  0.85171     C
C       0.3695  0.14829  0.14829     C
C       0.3695  0.85171      1.0     C
O      0.40135   0.0764   0.9077     O
O      0.40135   0.0923   0.1687     O
O      0.40135   0.1687   0.0923     O
O      0.40135   0.8313   0.9236     O
O      0.40135   0.9077   0.0764     O
O      0.40135   0.9236   0.8313     O
O          0.5      0.0      0.0     O
Cr         0.5      0.0  0.11341    Cr
Cr         0.5  0.11341      0.0    Cr
Cr         0.5  0.88659  0.88659    Cr
O      0.59865   0.0764   0.9077     O
O      0.59865   0.0923   0.1687     O
O      0.59865   0.1687   0.0923     O
O      0.59865   0.8313   0.9236     O
O      0.59865   0.9077   0.0764     O
O      0.59865   0.9236   0.8313     O
C       0.6305      0.0  0.85171     C
C       0.6305  0.14829  0.14829     C
C       0.6305  0.85171      1.0     C
H       0.7126   0.1304   0.8294     H
H       0.7126   0.1706    0.301     H
H       0.7126    0.301   0.1706     H
H       0.7126    0.699   0.8696     H
H       0.7126   0.8294   0.1304     H
H       0.7126   0.8696    0.699     H
C       0.7178      0.0  0.80332     C
C       0.7178  0.19668  0.19668     C
C       0.7178  0.80332      0.0     C
C       0.7478   0.0765   0.8013     C
C       0.7478   0.1987   0.2752     C
C       0.7478   0.2752   0.1987     C
C       0.7478   0.7248   0.9235     C
C       0.7478   0.8013   0.0765     C
C       0.7478   0.9235   0.7248     C
C       0.8272   0.0736    0.759     C
C       0.8272    0.241   0.3146     C
C       0.8272   0.3146    0.241     C
C       0.8272   0.6854   0.9264     C
C       0.8272    0.759   0.0736     C
C       0.8272   0.9264   0.6854     C
H        0.846   0.1263   0.7581     H
H        0.846   0.2419   0.3682     H
H        0.846   0.3682   0.2419     H
H        0.846   0.6318   0.8737     H
H        0.846   0.7581   0.1263     H
H        0.846   0.8737   0.6318     H
N      0.88065      0.0  0.71833     N
N      0.88065  0.28167  0.28167     N
N      0.88065  0.71833      1.0     N
