data_I
_chemical_name_common  '/home/zhangsd/repos/MofS-CGCNN/ML/data/WS24/clean_cifs/SONVAT'
_cell_length_a 18.61030
_cell_length_b 18.61030
_cell_length_c 18.61030
_cell_angle_alpha 60.00000
_cell_angle_beta  60.00000
_cell_angle_gamma 60.00000
_space_group_name_H-M_alt      'P 1'


loop_
_space_group_symop_operation_xyz
  'x, y, z' 

loop_
_atom_site_label
_atom_site_fract_x
_atom_site_fract_y
_atom_site_fract_z
_atom_site_type_symbol
O       0.0076   0.4794    0.626     O
O       0.0076   0.4794    0.887     O
O       0.0076    0.626   0.4794     O
O       0.0076    0.626    0.887     O
O       0.0076    0.887   0.4794     O
O       0.0076    0.887    0.626     O
H       0.0106   0.2276   0.2276     H
H       0.0106   0.2276   0.5342     H
H       0.0106   0.5342   0.2276     H
C       0.0681   0.1987   0.1987     C
C       0.0681   0.1987   0.5345     C
C       0.0681   0.5345   0.1987     C
C       0.0686   0.0686   0.3362     C
C       0.0686   0.0686   0.5266     C
C       0.0686   0.3362   0.0686     C
C       0.0686   0.3362   0.5266     C
C       0.0686   0.5266   0.0686     C
C       0.0686   0.5266   0.3362     C
Cu      0.0704      0.5      0.5    Cu
Cu      0.0704      0.5   0.9296    Cu
Cu      0.0704   0.9296      0.5    Cu
C       0.1115   0.1115   0.2423     C
C       0.1115   0.1115   0.5347     C
C       0.1115   0.2423   0.1115     C
C       0.1115   0.2423   0.5347     C
C       0.1115   0.5347   0.1115     C
C       0.1115   0.5347   0.2423     C
O        0.113    0.374   0.5206     O
O        0.113    0.374   0.9924     O
O        0.113   0.5206    0.374     O
O        0.113   0.5206   0.9924     O
O        0.113   0.9924    0.374     O
O        0.113   0.9924   0.5206     O
C       0.1987   0.0681   0.1987     C
C       0.1987   0.0681   0.5345     C
C       0.1987   0.1987   0.0681     C
C       0.1987   0.1987   0.5345     C
C       0.1987   0.5345   0.0681     C
C       0.1987   0.5345   0.1987     C
H       0.2276   0.0106   0.2276     H
H       0.2276   0.0106   0.5342     H
H       0.2276   0.2276   0.0106     H
H       0.2276   0.2276   0.5342     H
H       0.2276   0.5342   0.0106     H
H       0.2276   0.5342   0.2276     H
C       0.2423   0.1115   0.1115     C
C       0.2423   0.1115   0.5347     C
C       0.2423   0.5347   0.1115     C
C       0.3362   0.0686   0.0686     C
C       0.3362   0.0686   0.5266     C
C       0.3362   0.5266   0.0686     C
O        0.374    0.113   0.5206     O
O        0.374    0.113   0.9924     O
O        0.374   0.5206    0.113     O
O        0.374   0.5206   0.9924     O
O        0.374   0.9924    0.113     O
O        0.374   0.9924   0.5206     O
C       0.4653   0.7577   0.8885     C
C       0.4653   0.8885   0.7577     C
C       0.4653   0.8885   0.8885     C
C       0.4655   0.8013   0.8013     C
C       0.4655   0.8013   0.9319     C
C       0.4655   0.9319   0.8013     C
H       0.4658   0.7724   0.7724     H
H       0.4658   0.7724   0.9894     H
H       0.4658   0.9894   0.7724     H
C       0.4734   0.6638   0.9314     C
C       0.4734   0.9314   0.6638     C
C       0.4734   0.9314   0.9314     C
O       0.4794   0.0076    0.626     O
O       0.4794   0.0076    0.887     O
O       0.4794    0.626   0.0076     O
O       0.4794    0.626    0.887     O
O       0.4794    0.887   0.0076     O
O       0.4794    0.887    0.626     O
Cu         0.5   0.0704      0.5    Cu
Cu         0.5   0.0704   0.9296    Cu
Cu         0.5      0.5   0.0704    Cu
Cu         0.5      0.5   0.9296    Cu
Cu         0.5   0.9296   0.0704    Cu
Cu         0.5   0.9296      0.5    Cu
O       0.5206    0.113    0.374     O
O       0.5206    0.113   0.9924     O
O       0.5206    0.374    0.113     O
O       0.5206    0.374   0.9924     O
O       0.5206   0.9924    0.113     O
O       0.5206   0.9924    0.374     O
C       0.5266   0.0686   0.0686     C
C       0.5266   0.0686   0.3362     C
C       0.5266   0.3362   0.0686     C
H       0.5342   0.0106   0.2276     H
H       0.5342   0.2276   0.0106     H
H       0.5342   0.2276   0.2276     H
C       0.5345   0.0681   0.1987     C
C       0.5345   0.1987   0.0681     C
C       0.5345   0.1987   0.1987     C
C       0.5347   0.1115   0.1115     C
C       0.5347   0.1115   0.2423     C
C       0.5347   0.2423   0.1115     C
O        0.626   0.0076   0.4794     O
O        0.626   0.0076    0.887     O
O        0.626   0.4794   0.0076     O
O        0.626   0.4794    0.887     O
O        0.626    0.887   0.0076     O
O        0.626    0.887   0.4794     O
C       0.6638   0.4734   0.9314     C
C       0.6638   0.9314   0.4734     C
C       0.6638   0.9314   0.9314     C
C       0.7577   0.4653   0.8885     C
C       0.7577   0.8885   0.4653     C
C       0.7577   0.8885   0.8885     C
H       0.7724   0.4658   0.7724     H
H       0.7724   0.4658   0.9894     H
H       0.7724   0.7724   0.4658     H
H       0.7724   0.7724   0.9894     H
H       0.7724   0.9894   0.4658     H
H       0.7724   0.9894   0.7724     H
C       0.8013   0.4655   0.8013     C
C       0.8013   0.4655   0.9319     C
C       0.8013   0.8013   0.4655     C
C       0.8013   0.8013   0.9319     C
C       0.8013   0.9319   0.4655     C
C       0.8013   0.9319   0.8013     C
O        0.887   0.0076   0.4794     O
O        0.887   0.0076    0.626     O
O        0.887   0.4794   0.0076     O
O        0.887   0.4794    0.626     O
O        0.887    0.626   0.0076     O
O        0.887    0.626   0.4794     O
C       0.8885   0.4653   0.7577     C
C       0.8885   0.4653   0.8885     C
C       0.8885   0.7577   0.4653     C
C       0.8885   0.7577   0.8885     C
C       0.8885   0.8885   0.4653     C
C       0.8885   0.8885   0.7577     C
Cu      0.9296   0.0704      0.5    Cu
Cu      0.9296      0.5   0.0704    Cu
Cu      0.9296      0.5      0.5    Cu
C       0.9314   0.4734   0.6638     C
C       0.9314   0.4734   0.9314     C
C       0.9314   0.6638   0.4734     C
C       0.9314   0.6638   0.9314     C
C       0.9314   0.9314   0.4734     C
C       0.9314   0.9314   0.6638     C
C       0.9319   0.4655   0.8013     C
C       0.9319   0.8013   0.4655     C
C       0.9319   0.8013   0.8013     C
H       0.9894   0.4658   0.7724     H
H       0.9894   0.7724   0.4658     H
H       0.9894   0.7724   0.7724     H
O       0.9924    0.113    0.374     O
O       0.9924    0.113   0.5206     O
O       0.9924    0.374    0.113     O
O       0.9924    0.374   0.5206     O
O       0.9924   0.5206    0.113     O
O       0.9924   0.5206    0.374     O
