data_I
_chemical_name_common  '/home/zhangsd/repos/MofS-CGCNN/ML/data/WS24/clean_cifs/SOSFIR'
_cell_length_a 19.63721
_cell_length_b 19.63721
_cell_length_c 28.40089
_cell_angle_alpha 110.06133
_cell_angle_beta  110.06133
_cell_angle_gamma 90.44564
_space_group_name_H-M_alt      'P 1'


loop_
_space_group_symop_operation_xyz
  'x, y, z' 

loop_
_atom_site_label
_atom_site_fract_x
_atom_site_fract_y
_atom_site_fract_z
_atom_site_type_symbol
Zn     0.00044   0.4541  0.60186    Zn
H       0.0021   0.3819    0.926     H
H        0.004   0.2402    0.953     H
H       0.0063   0.2997   0.9926     H
H       0.0071   0.3277   0.0812     H
C      0.00776  0.18856  0.39818     C
C      0.00814  0.10152  0.81766     C
C      0.00985  0.60865  0.40848     C
Zn     0.01273  0.53981  0.48548    Zn
C      0.01374  0.96648  0.19176     C
O      0.01457  0.55547   0.6096     O
H        0.015   0.7932   0.6302     H
H       0.0169   0.3339   0.3154     H
H       0.0179   0.1521   0.8396     H
H        0.019   0.3162   0.0024     H
H        0.022   0.3166   0.3122     H
H       0.0228    0.378    0.367     H
C      0.02323  0.12585   0.3156     C
C      0.02323  0.25363  0.97674     C
H       0.0234   0.6434   0.3534     H
H       0.0241   0.5347   0.0048     H
H       0.0242   0.4534   0.2772     H
H       0.0261   0.1661   0.6796     H
C      0.02734  0.20594  0.01052     C
C      0.02796  0.38368   0.3424     C
H       0.0317   0.7371   0.2972     H
C      0.03172  0.19742  0.71512     C
H       0.0319   0.7695    0.226     H
H        0.033   0.5804   0.0608     H
C      0.03352  0.98626  0.80824     C
C      0.03712  0.52524   0.0383     C
H       0.0402   0.3814   0.3782     H
H       0.0406   0.4582   0.0566     H
C      0.04304  0.02458  0.24146     C
H       0.0432   0.3478   0.1096     H
O      0.04622  0.61944    0.555     O
H       0.0463   0.9379    0.178     H
C      0.04841  0.29133  0.81892     C
C      0.04927  0.70201   0.6931     C
H       0.0499   0.4755    0.032     H
H       0.0502   0.1782   0.0102     H
N      0.05049  0.05755  0.83694     N
H       0.0507   0.1621    0.997     H
C      0.05173  0.31225  0.09796     C
H       0.0572   0.6312   0.4346     H
H       0.0591   0.4445   0.8668     H
C      0.06006  0.34354  0.87544     C
H       0.0621   0.9537    0.822     H
O      0.06472  0.71414  0.14116     O
H       0.0651   0.3855    0.257     H
H       0.0651   0.8219   0.3212     H
C       0.0666   0.7323  0.78488     C
N      0.06779  0.23717  0.41512     N
C      0.07053  0.43333  0.28528     C
P      0.07113  0.60565  0.60798     P
H       0.0719   0.2641   0.9764     H
C      0.07328  0.77174  0.30382     C
C       0.0737  0.24964    0.069     C
H       0.0737   0.4719   0.0158     H
O       0.0778  0.68536  0.65224     O
H         0.08    0.395   0.1712     H
C      0.08033  0.76333  0.24998     C
H       0.0804   0.5026    0.351     H
C       0.0806   0.4848   0.0538     C
C       0.0806   0.5656    0.079     C
Zn     0.08248  0.33106  0.47998    Zn
C       0.0838  0.17394  0.33172     C
O      0.08526  0.40954  0.62602     O
H       0.0863   0.2781   0.9908     H
C      0.08706  0.66508  0.16666     C
C      0.09154  0.42438    0.341     C
C      0.09358  0.70508  0.74362     C
H       0.0936   0.6268   0.0748     H
H       0.0944    0.036   0.2612     H
H       0.0947   0.3243   0.9014     H
C      0.09498  0.35226  0.15144     C
C      0.09607  0.41905   0.8847     C
H       0.0965   0.7365   0.8204     H
O      0.09655  0.50745  0.47046     O
C      0.09791  0.68937  0.22064     C
C      0.09996  0.21146  0.75638     C
H       0.1013   0.4619   0.2994     H
H       0.1018   0.4746   0.3694     H
C      0.10314  0.59798  0.13802     C
O      0.10317  0.31775    0.547     O
C      0.10617  0.25891   0.8069     C
C      0.10702  0.23154  0.38504     C
H        0.109   0.4668   0.2866     H
H       0.1104   0.1702   0.3088     H
H       0.1109   0.4269   0.3832     H
C      0.11337  0.47097   0.3378     C
H       0.1173   0.4479   0.9234     H
H       0.1174   0.0694   0.7242     H
H       0.1184   0.7616   0.3274     H
H       0.1214   0.5708    0.712     H
C      0.12202  0.63886  0.24656     C
H       0.1226    0.873   0.2764     H
C      0.12574  0.55088  0.16546     C
H        0.127   0.8774   0.7236     H
H       0.1271   0.3941   0.1988     H
H       0.1274   0.4718   0.0728     H
H       0.1285   0.1265   0.6624     H
H       0.1302   0.6526   0.2838     H
H        0.133   0.3064   0.2806     H
C      0.13371  0.57049  0.21848     C
H       0.1348    0.413   0.8698     H
C      0.13483  0.35199  0.17302     C
H       0.1353   0.6565   0.0804     H
H       0.1359   0.5041   0.1472     H
C      0.13649  0.82573  0.25892     C
H       0.1376    0.823    0.224     H
C      0.13893  0.22703  0.09354     C
P      0.14068    0.374   0.6038     P
H       0.1432   0.5952   0.7758     H
C       0.1441   0.6061   0.0764     C
O      0.14681  0.58645  0.62418     O
H       0.1475   0.5365    0.236     H
Zn     0.14858  0.10224  0.89814    Zn
H       0.1491   0.5813   0.0416     H
H       0.1505   0.2649    0.398     H
H        0.151   0.3364    0.724     H
O      0.15233  0.39243  0.47676     O
O      0.15305  0.11015  0.96768     O
H       0.1534   0.4038   0.7764     H
O      0.15497  0.19587   0.8904     O
C      0.15862   0.5993   0.7474     C
H       0.1594   0.1088    0.788     H
C      0.16071  0.38937   0.3537     C
H       0.1609   0.2861   0.2904     H
C      0.16122   0.1019   0.7526     C
H       0.1617   0.2109   0.6844     H
O      0.16345  0.16701  0.06336     O
H       0.1641   0.4949   0.3582     H
C      0.16424  0.17532  0.74644     C
P      0.16623  0.47251  0.48454     P
H       0.1672   0.5564   0.0362     H
C      0.16775  0.16497  0.69072     C
C       0.1678  0.67888  0.75356     C
C      0.16975  0.32683  0.31566     C
H       0.1723   0.0577   0.3668     H
C      0.17283  0.56269  0.07314     C
H       0.1739   0.1951   0.5804     H
C      0.17427  0.86351  0.74108     C
O      0.17556  0.28312  0.84776     O
H        0.177   0.8624    0.776     H
O      0.17702  0.32644  0.64116     O
H       0.1781   0.9349   0.6788     H
H       0.1789   0.8149    0.718     H
C      0.18218  0.26704  0.14702     C
C      0.18319  0.37243  0.75892     C
H       0.1851   0.5175   0.0794     H
H       0.1851   0.8211    0.282     H
H       0.1854   0.6818    0.725     H
H       0.1893   0.6069   0.1056     H
H       0.1898    0.357   0.2126     H
H        0.198   0.2312   0.5748     H
O      0.20075  0.42489  0.60846     O
O      0.20372  0.47852   0.4438     O
P      0.20424  0.16688  0.02298     P
H        0.205     0.08   0.7496     H
H       0.2054   0.5804   0.7504     H
H       0.2065   0.4441    0.726     H
H       0.2068    0.985   0.3698     H
O      0.20924  0.03352  0.87398     O
H       0.2103   0.1425   0.5416     H
H       0.2104   0.2068    0.775     H
O      0.21049  0.24441  0.02328     O
H       0.2109   0.3469    0.782     H
H       0.2122    0.603   0.0986     H
P      0.21315  0.24767  0.89202     P
Zn     0.21381  0.52041  0.60628    Zn
C      0.21448  0.41928  0.40504     C
H       0.2152   0.1508     0.69     H
C      0.21565  0.03863   0.3847     C
H       0.2161   0.7141   0.8376     H
H       0.2201   0.2307   0.5048     H
C       0.2203   0.1823   0.5764     C
O      0.22168   0.5174  0.53902     O
H       0.2235   0.7727   0.1844     H
H       0.2255   0.0561   0.4234     H
C      0.22703  0.72425  0.80928     C
H       0.2273   0.7765   0.8156     H
C      0.22826  0.92672  0.69618     C
H       0.2291   0.3703   0.1096     H
H       0.2292   0.0196   0.1956     H
H       0.2298    0.119   0.5362     H
H       0.2304   0.2778   0.5608     H
H       0.2305   0.9681    0.774     H
C      0.23252  0.29418  0.32894     C
C      0.23665  0.41965  0.74998     C
C      0.23667  0.91967  0.75002     C
H       0.2373   0.0913   0.2828     H
H       0.2384   0.8816   0.6726     H
H       0.2387   0.2515    0.303     H
H       0.2404   0.1586   0.3654     H
O      0.24122  0.31444    0.945     O
H       0.2456   0.1364   0.5986     H
C      0.24675  0.00163  0.22404     C
H       0.2487   0.1663   0.6056     H
H       0.2493   0.5061   0.8212     H
C      0.25122   0.2295  0.58138     C
C     0.25158167 0.32960167 0.66666333     C
C      0.25199  0.04401  0.27626     C
C      0.25598   0.2454  0.17208     C
C      0.26045  0.15031  0.57314     C
H       0.2629   0.9683   0.7028     H
C      0.26306  0.25118   0.5383     C
H       0.2635   0.9035   0.1796     H
H       0.2653   0.4679   0.1884     H
C      0.26719  0.40689  0.11682     C
C       0.2677   0.9334  0.21512     C
H       0.2702   0.3046     0.55     H
O      0.27263  0.21227  0.87582     O
H       0.2752   0.7108     0.81     H
C      0.27575  0.77297  0.19072     C
O      0.27628  0.14268  0.04468     O
Zn     0.27725  0.30433  0.01452    Zn
C      0.27726  0.38664  0.41834     C
C      0.27759  0.02051  0.31892     C
H       0.2794   0.2334   0.1446     H
H       0.2804    0.607   0.2378     H
C      0.28127  0.37273  0.72064     C
C       0.2819  0.06538  0.37544     C
C      0.28208  0.48054  0.80382     C
H       0.2855   0.2759   0.3118     H
O      0.28586  0.93528  0.85884     O
H       0.2859   0.7839   0.1624     H
C      0.28627  0.32409  0.38028     C
C      0.28628   0.1481   0.3879     C
P      0.28688   0.0202   0.8962     P
H       0.2876   0.3206   0.2506     H
H       0.2892   0.7248     0.19     H
C      0.28988  0.46354   0.1642     C
C      0.29004  0.28488  0.63802     C
H       0.2939   0.1921   0.5158     H
H       0.2941   0.1739    0.426     H
H       0.2943   0.2925     0.25     H
C      0.29492  0.90642  0.25638     C
N      0.29657  0.39969   0.0785     N
C      0.29799  0.95073   0.3069     C
H       0.2984   0.6698   0.6842     H
H       0.3008   0.3834    0.522     H
N      0.30545  0.56537  0.67074     N
O      0.30617  0.02075    0.953     O
H       0.3065   0.2321    0.532     H
C      0.30817  0.30755   0.2223     C
H       0.3096   0.0228   0.0792     H
H       0.3101   0.5155   0.7972     H
C      0.31063  0.90209  0.77936     C
H       0.3119   0.1443   0.5794     H
H       0.3144   0.3504   0.2132     H
O      0.31464   0.9222  0.34776     O
H       0.3158    0.459   0.8274     H
H       0.3182   0.8146    0.275     H
C        0.319   0.2232   0.5538     C
C      0.31985  0.35181   0.3882     C
C      0.32112   0.8322  0.24644     C
C      0.32153  0.26773  0.22742     C
C      0.32618   0.6376  0.69884     C
H       0.3271   0.0567   0.4014     H
H       0.3271   0.1647   0.3802     H
H       0.3285   0.4683   0.4914     H
H       0.3292   0.3018   0.3894     H
H       0.3302   0.7016   0.3158     H
C      0.33219  0.61797  0.25484     C
C      0.33492  0.91294  0.83334     C
H       0.3353   0.4977   0.4918     H
H       0.3361   0.4683    0.674     H
C       0.3388  0.41836    0.473     C
H         0.34   0.3234     0.49     H
C      0.34228   0.3758  0.50994     C
O      0.34229  0.06643  0.89154     O
H       0.3435   0.8647   0.9196     H
H       0.3474   0.8698   0.7162     H
C      0.34753  0.51997  0.69212     C
C      0.34795  0.51521   0.1781     C
H       0.3484    0.266   0.5566     H
H        0.349   0.4374   0.5462     H
H       0.3492   0.3042    0.222     H
H        0.351   0.1954   0.5728     H
C      0.35137  0.45017  0.09152     C
Zn      0.3525  0.10108  0.02002    Zn
H       0.3537   0.3623   0.5022     H
H       0.3555   0.2399   0.2452     H
H       0.3558   0.0086   0.1624     H
H       0.3558   0.2914   0.2352     H
H       0.3566   0.9766   0.6466     H
Zn     0.35753  0.16413  0.89372    Zn
C       0.3577  0.37454  0.74656     C
C      0.35958  0.04038  0.10182     C
C      0.36114  0.87798  0.75344     C
C       0.3624  0.67382  0.30116     C
H       0.3642   0.2356   0.8158     H
C      0.36458  0.28972  0.66546     C
H       0.3688   0.9428   0.5654     H
H       0.3704   0.3476   0.3968     H
C      0.37228  0.41478  0.52018     C
H       0.3726   0.4466   0.0654     H
H       0.3732   0.9064   0.9252     H
O      0.37609  0.28699  0.02954     O
C      0.37728  0.57502  0.23108     C
C      0.37734  0.18876  0.80116     C
C      0.37928  0.50646  0.13928     C
O      0.38056  0.95378    0.445     O
H       0.3808   0.2074   0.7378     H
H       0.3812   0.4036   0.7838     H
C      0.38203  0.66781  0.74516     C
C      0.38282     0.01  0.63928     C
N      0.38471  0.14463  0.82926     N
C      0.38635  0.03261   0.1515     C
C      0.38687  0.17265  0.75484     C
H       0.3882   0.3934   0.5414     H
C      0.39135  0.99015  0.59152     C
H       0.3918    0.081   0.2566     H
H        0.393   0.7196   0.7622     H
H       0.3931   0.2613   0.6472     H
H       0.3931   0.8107   0.8944     H
C       0.3939   0.8559   0.9236     C
P      0.39435  0.92887  0.39202     P
H        0.397   0.7878   0.9014     H
C      0.39799  0.33477  0.71848     C
H       0.4007   0.3247   0.1656     H
C       0.4007  0.84138   0.2526     C
C      0.40202  0.89686  0.86198     C
N      0.40267  0.07205  0.08488     N
H       0.4048   0.8568   0.2242     H
C      0.40541  0.07785  0.80788     C
H       0.4058    0.261    0.133     H
C      0.40584  0.54952   0.7396     C
C      0.40606   0.1038  0.73108     C
H        0.412   0.2532   0.1218     H
H       0.4121   0.0443    0.826     H
C      0.41289  0.08015   0.6781     C
O      0.41355  0.85319  0.37582     O
H       0.4137   0.3973   0.4346     H
C      0.41462  0.42912  0.47014     C
C      0.41624  0.05992   0.7604     C
H       0.4187   0.8509   0.9584     H
H       0.4196   0.7946   0.2496     H
H       0.4196    0.967   0.9392     H
C      0.41984  0.89812  0.91862     C
H         0.42     0.54   0.1466     H
H       0.4231   0.5139    0.462     H
C      0.42498  0.62272  0.76892     C
C      0.42507  0.46893   0.4699     C
H       0.4255   0.4215   0.5392     H
O      0.42557  0.16567  0.02324     O
N      0.42881  0.03193   0.5785     N
H       0.4292   0.8786    0.288     H
H       0.4294   0.4284   0.4396     H
C      0.42951  0.86629  0.78152     C
P      0.43169  0.23797  0.01546     P
H       0.4319   0.0141    0.747     H
O      0.43266  0.22838  0.96098     O
H       0.4331   0.3313    0.188     H
N      0.43463  0.69455  0.32926     N
H       0.4349   0.5171    0.753     H
C      0.43556  0.29128   0.1576     C
H       0.4362   0.2334   0.5024     H
C      0.43731  0.82717  0.92686     C
H       0.4375   0.0717   0.3396     H
C      0.43897  0.06725  0.26938     C
H       0.4429   0.2363   0.4926     H
H       0.4436   0.8328   0.9638     H
O      0.44453  0.98543   0.3904     O
C      0.44912  0.87426  0.83454     C
H       0.4495   0.3385    0.736     H
C      0.45048  0.59416   0.2604     C
C      0.45066  0.12432   0.6642     C
H       0.4511   0.4165   0.4982     H
H       0.4515   0.2685   0.1846     H
C      0.45763  0.06025   0.1844     C
H       0.4598   0.2544   0.1878     H
C      0.45993  0.09963  0.61682     C
H         0.46     0.58   0.8534     H
Zn     0.46019  0.98727  0.51452    Zn
H       0.4623   0.1545   0.4764     H
H       0.4623   0.2009   0.4398     H
H       0.4627   0.1545   0.4908     H
H       0.4628    0.199    0.453     H
H       0.4635   0.8525    0.764     H
H       0.4653   0.9759   0.9952     H
C      0.46614  0.05952  0.31766     C
H       0.4675   0.4759   0.5028     H
H       0.4702   0.0046     0.95     H
H       0.4705   0.1731   0.6884     H
C      0.47073  0.20333  0.48998     C
C      0.47198   0.0965  0.11496     C
C      0.47476  0.96288   0.9617     C
H       0.4777   0.2937   0.1168     H
H       0.4794   0.4016    0.149     H
Zn     0.47959  0.78619  0.39372    Zn
C      0.48003  0.65247  0.30788     C
H       0.4824   0.3552   0.1306     H
H       0.4825   0.8149   0.9206     H
O       0.4826  0.77832  0.46098     O
H       0.4829   0.5651    0.247     H
C      0.48414   0.0538   0.2391     C
H       0.4845   0.6899   0.2028     H
C      0.48479  0.65205   0.8219     C
H       0.4893   0.1305   0.6096     H
O      0.49255  0.90345  0.52954     O
C      0.49354  0.62072  0.86072     C
H       0.4939   0.7507   0.1788     H
H       0.4959   0.8641   0.8528     H
H        0.497   0.4262   0.2228     H
H       0.4974   0.9196    0.649     H
C      0.50054  0.33338    0.159     C
C      0.50208  0.09222  0.16828     C
H       0.5023   0.6647   0.5082     H
H       0.5025   0.1169    0.102     H
H       0.5035   0.3241   0.5812     H
H       0.5051   0.8359   0.6418     H
O      0.50992  0.28472   0.0562     O
H       0.5118   0.3164   0.6096     H
C       0.5152   0.9194   0.9462     C
C      0.51946  0.71792  0.19618     C
H       0.5197   0.5727   0.5244     H
O      0.52148  0.79628   0.5562     O
H       0.5241   0.5325   0.4972     H
H       0.5245   0.9501    0.968     H
H       0.5254   0.8982   0.6306     H
C      0.52557  0.38317   0.1622     C
H       0.5262   0.3412   0.6712     H
P      0.52749  0.83377  0.51546     P
H       0.5281   0.9263   0.9842     H
H       0.5282   0.8726   0.9272     H
H       0.5283   0.3463   0.5416     H
H       0.5288   0.1114    0.978     H
O      0.52887  0.06279  0.52328     O
C      0.52903  0.88663   0.6622     C
N      0.52939  0.03645  0.33694     N
H       0.5317   0.6639    0.326     H
H       0.5317   0.6715   0.5086     H
H       0.5321   0.7347   0.8116     H
H       0.5332    0.891   0.7134     H
C      0.53525  0.39805  0.21472     C
C      0.53571  0.29623  0.59796     C
C      0.53646  0.71012   0.8358     C
H       0.5381   0.8987   0.7006     H
H        0.541   0.6842   0.1726     H
H       0.5418   0.9594   0.9434     H
H       0.5456   0.3406   0.5186     H
Zn      0.5459  0.99956  0.39814    Zn
H       0.5466   0.9758   0.7228     H
C      0.54898  0.64528  0.52188     C
C      0.54901  0.23921  0.52678     C
C      0.54918  0.30646  0.65144     C
C      0.54983  0.64863  0.90848     C
C      0.55158  0.03312  0.25854     C
H       0.5516   0.1114   0.1912     H
H       0.5519   0.4125   0.2006     H
H       0.5521   0.8827   0.0766     H
H       0.5528   0.1412   0.9538     H
H       0.5532   0.3142    0.491     H
H       0.5534   0.6274   0.9346     H
H       0.5547   0.3217   0.6988     H
H       0.5555   0.9409   0.1332     H
H       0.5559   0.3867   0.1418     H
H       0.5559   0.7935    0.274     H
C      0.55701  0.28567   0.1463     C
H       0.5581   0.3785    0.243     H
C      0.55875  0.24317  0.08658     C
C      0.56194  0.31654  0.52772     C
H       0.5626    0.651   0.4538     H
C      0.56667  0.92947  0.71472     C
C      0.56936   0.2453    0.569     C
H       0.5698   0.4276   0.7866     H
C      0.57088  0.58538  0.52986     C
C      0.57103  0.28819  0.67302     C
H       0.5716   0.5706   0.5604     H
C      0.57198  0.02472  0.30824     C
H       0.5724   0.4302   0.2134     H
H       0.5731   0.8891   0.6168     H
H       0.5738    0.503   0.7772     H
O      0.57511  0.79925  0.39154     O
C      0.57562  0.90846    0.659     C
H       0.5785   0.5745   0.4608     H
C      0.58035  0.76335  0.25002     C
C      0.58072  0.78552  0.59496     C
C      0.58095  0.90393   0.1153     C
H        0.582     0.21   0.5102     H
C      0.58234  0.11586  0.99006     C
H       0.5832   0.0248   0.2388     H
H       0.5835   0.5489   0.5018     H
H       0.5849   0.1963    0.497     H
C      0.58522  0.62772  0.47982     C
H        0.587   0.8652   0.1302     H
H       0.5871   0.2269   0.0086     H
H       0.5875   0.4481   0.7994     H
O      0.59046  0.91474  0.37398     O
H       0.5909   0.0149   0.6656     H
C      0.59311  0.73281  0.88318     C
H       0.5935   0.2559   0.0082     H
H       0.5962   0.8466   0.2236     H
H       0.5964   0.6188   0.2162     H
H       0.5968    0.102   0.9586     H
H       0.5984   0.5206    0.851     H
C      0.59948  0.70376   0.5739     C
H          0.6   0.0834     0.01     H
N      0.60031  0.70343   0.9215     N
H       0.6015   0.1101   0.9978     H
C      0.60195  0.46475  0.78528     C
C       0.6021   0.1446  0.97982     C
H       0.6024   0.2758   0.2194     H
H       0.6027   0.5863   0.5654     H
C      0.60409  0.26117  0.18434     C
H        0.605     0.92   0.8288     H
H       0.6056   0.2728   0.7126     H
H       0.6059   0.8729   0.8012     H
P       0.6061  0.06874  0.52298     P
H       0.6066   0.6118   0.4586     H
H       0.6067   0.0049    0.688     H
O      0.60753  0.06463  0.46768     O
O      0.60757  0.84767  0.52324     O
C      0.60892   0.2183  0.08166     C
C      0.61063  0.83929   0.6463     C
H       0.6125   0.3385    0.551     H
H       0.6128   0.1488   0.7132     H
H       0.6133   0.4441   0.8582     H
H       0.6145   0.9349    0.743     H
C       0.6158  0.19536    0.027     C
C      0.61632  0.97204   0.6576     C
C      0.61651  0.20461  0.59354     C
H       0.6166   0.6992    0.478     H
C      0.61683  0.47443   0.8378     C
H       0.6181   0.9979    0.074     H
H       0.6183   0.0099    0.322     H
H       0.6186   0.9598   0.6218     H
H       0.6205   0.2457   0.2096     H
H       0.6215   0.4419    0.757     H
H        0.622   0.9772    0.633     H
C       0.6242  0.65772  0.49006     C
H        0.625   0.0432   0.1346     H
C      0.62546   0.6423  0.25344     C
P        0.626  0.85932   0.3962     P
H       0.6272    0.322   0.5272     H
C      0.62727  0.71873  0.27936     C
C      0.62757  0.81681  0.24108     C
H       0.6297   0.7709   0.8904     H
C      0.62998  0.21484  0.64702     C
H       0.6363   0.1323   0.9608     H
H       0.6377   0.6463   0.4978     H
H        0.643   0.8102   0.7874     H
H       0.6448   0.5176   0.8694     H
O      0.64635  0.14991  0.56336     O
C      0.64774  0.90502  0.84856     C
C      0.64801  0.86517  0.82698     C
C      0.64819  0.68015   0.6118     C
C      0.64838   0.0102   0.1121     C
H       0.6496   0.6856   0.7868     H
O        0.652   0.0184  0.54468     O
H       0.6522   0.9568   0.8904     H
H       0.6524   0.6296   0.6032     H
H       0.6531   0.7891    0.218     H
C      0.65358  0.21524  0.17106     C
H       0.6537   0.4717   0.4584     H
C      0.65599  0.19381  0.11972     C
C      0.65646  0.93994  0.12456     C
H       0.6588   0.4738   0.3288     H
H       0.6594   0.4544   0.4814     H
H       0.6612   0.1152   0.6446     H
H       0.6615   0.3875    0.449     H
H       0.6615   0.5505    0.264     H
H       0.6636    0.849    0.276     H
C      0.66475  0.16413   0.7223     C
C      0.66523  0.60201  0.28152     C
H       0.6661   0.9831   0.6846     H
C      0.66662  0.49946    0.841     C
H       0.6678   0.1228    0.722     H
H       0.6687   0.5669    0.812     H
Zn     0.66894  0.91752  0.52002    Zn
C     0.67039833 0.74841833 0.33333667     C
C      0.67317  0.83025  0.68434     C
O      0.67356  0.82298  0.35884     O
H       0.6753   0.5993   0.8344     H
C       0.6755  0.91502  0.87988     C
H       0.6757   0.9053   0.0986     H
H       0.6759   0.4965   0.4188     H
C      0.67591  0.71373  0.61972     C
H       0.6766     0.66     0.51     H
C      0.67668   0.1661  0.67208     C
H        0.678   0.3728   0.4728     H
H       0.6783   0.4453   0.3012     H
H       0.6794   0.7124   0.7494     H
H         0.68    0.213   0.7506     H
C      0.68165  0.21361   0.1118     C
O      0.68225  0.89683    0.453     O
H       0.6834    0.978   0.6878     H
C      0.68346  0.43806  0.47228     C
H       0.6836   0.4882   0.3904     H
H       0.6838    0.981   0.9976     H
O      0.68556  0.75878    0.055     O
H       0.6857   0.1985    0.197     H
H       0.6858   0.4468    0.509     H
H       0.6898   0.1624   0.1106     H
C      0.69084   0.7306  0.66238     C
C      0.69245  0.69183   0.7777     C
C      0.69354  0.45082  0.34856     C
H       0.6936    0.867   0.7194     H
H       0.6938   0.1294   0.7352     H
C      0.69448  0.20898  0.02986     C
H       0.6954   0.7298     0.45     H
Zn     0.69567  0.72275  0.98548    Zn
H       0.6958   0.6508    0.778     H
H       0.6969   0.0345   0.1198     H
H       0.6982   0.6708   0.6106     H
H       0.7003   0.9937   0.0074     H
H       0.7017   0.2547   0.0244     H
H       0.7029   0.1683   0.0018     H
C      0.70377  0.46429  0.40204     C
H       0.7045   0.0585   0.2172     H
H       0.7063   0.5223   0.8832     H
H       0.7075   0.2057     0.75     H
H       0.7075   0.7057     0.75     H
H       0.7086   0.6442   0.7648     H
C      0.70867  0.95159  0.18108     C
C      0.70872  0.56444   0.8424     C
C      0.70969  0.15589  0.72742     C
C      0.71028  0.63542  0.33454     C
C      0.71181  0.42897  0.32698     C
O      0.71301  0.62391  0.97046     O
H       0.7139   0.8391   0.7096     H
C      0.71433  0.44299   0.8537     C
H       0.7147   0.2231   0.9972     H
C      0.71512  0.70996  0.36198     C
O      0.71528  0.49008   0.9438     O
O      0.71688  0.82444  0.15224     O
H       0.7219   0.9137   0.0092     H
H       0.7222   0.7696   0.4392     H
H       0.7236   0.2008   0.1032     H
H       0.7237   0.2141   0.1882     H
H       0.7241   0.7145   0.6882     H
H       0.7242   0.3976   0.7806     H
C      0.72573  0.01775  0.22374     C
H       0.7272   0.3944   0.2874     H
H       0.7291   0.2127   0.0654     H
C      0.73075  0.96335  0.01002     C
H       0.7315   0.5485   0.8154     H
C      0.73227  0.67847  0.77258     C
C      0.73296  0.81782  0.85298     C
H        0.734   0.6516   0.4434     H
H       0.7351   0.8495    0.602     H
C      0.73576  0.44056  0.90504     C
H       0.7359   0.9281   0.0236     H
H       0.7367   0.0547   0.9584     H
C      0.73711  0.90377  0.91746     C
H       0.7387   0.6069   0.3528     H
C      0.73883  0.39591  0.81566     C
H        0.739   0.5942    0.867     H
H       0.7398   0.2388   0.0604     H
C      0.74109  0.89383   0.1931     C
H       0.7441   0.4065   0.9918     H
H       0.7453   0.2983   0.9756     H
H       0.7456   0.5402   0.8122     H
H       0.7468    0.588   0.8782     H
H       0.7485   0.7613    0.697     H
C      0.74882  0.73694   0.4617     C
C       0.7516   0.7366    0.421     C
P      0.75233  0.78685  0.10798     P
H       0.7543   0.3795   0.7904     H
C       0.7546  0.74402  0.82792     C
C       0.7547  0.43064    0.431     C
H       0.7553   0.1397   0.7452     H
O      0.75559  0.78951  0.97672     O
C      0.75877  0.18497   0.6854     C
H       0.7598    0.996    0.047     H
H       0.7601   0.6445   0.7548     H
C      0.76079  0.45099  0.47322     C
H       0.7612   0.2602   0.9396     H
P      0.76203  0.56831  0.98454     P
N      0.76283  0.93221  0.58488     N
H       0.7637   0.5571   0.5074     H
H       0.7644   0.6358   0.1842     H
H       0.7666   0.5638   0.4976     H
H       0.7666   0.7206   0.8554     H
H       0.7679   0.6935    0.468     H
C      0.76846  0.89298  0.61496     C
H       0.7688    0.802   0.4252     H
H       0.7693   0.7799   0.4952     H
H       0.7694    0.165   0.6524     H
C       0.7713  0.84272  0.90216     C
O      0.77162  0.56734  0.03902     O
C      0.77223  0.96243  0.97322     C
H       0.7724   0.2384    0.701     H
H       0.7725   0.0111   0.0602     H
C      0.77271  0.02759  0.27596     C
H       0.7731   0.4129   0.9914     H
H       0.7746   0.2498   0.6904     H
C      0.77558  0.37986   0.9261     C
C       0.7768    0.681   0.4462     C
H       0.7769   0.2853   0.0028     H
H        0.777    0.072   0.9814     H
C       0.7771   0.3734  0.97812     C
C      0.77846  0.31822  0.83762     C
H       0.7836    0.074   0.3044     H
C      0.78422  0.03882  0.97228     C
C      0.78516  0.37002  0.35298     C
H       0.7859   0.2763   0.8118     H
C      0.78639  0.31835   0.8882     C
H       0.7869   0.1637   0.7114     H
H        0.787     0.32   0.2494     H
H       0.7873   0.2709   0.9346     H
O      0.78773  0.72737  0.12418     O
H       0.7878   0.1798   0.6464     H
C      0.78854  0.90004  0.24362     C
H       0.7891   0.8383   0.3156     H
H         0.79    0.418   0.4898     H
C      0.79102  0.30552  0.97014     C
H       0.7926   0.6192   0.2622     H
H       0.7932   0.7896    0.225     H
H       0.7943   0.2925     0.25     H
C      0.79539  0.38349  0.40646     C
C      0.79649  0.52689  0.52326     C
H       0.7991   0.5377   0.5602     H
H       0.7992   0.2764   0.8968     H
H        0.801   0.5372    0.547     H
H       0.8015   0.3143    0.803     H
C      0.80258  0.96828  0.28488     C
H       0.8037   0.4151    0.503     H
O      0.80413  0.84503   0.1096     O
H       0.8046    0.649   0.4272     H
H       0.8049   0.8261   0.4196     H
C      0.80619  0.34401  0.88028     C
H       0.8064   0.0196   0.5792     H
H       0.8079   0.7061   0.4842     H
C      0.81124  0.62266  0.19884     C
C      0.81144  0.99224  0.60182     C
H       0.8115   0.0375    0.949     H
H       0.8122   0.0732    0.009     H
C       0.8177   0.7797   0.4236     C
H       0.8197   0.1899   0.7088     H
H       0.8214   0.7874    0.799     H
H       0.8218   0.9498   0.9898     H
C      0.82337  0.74957   0.8146     C
C      0.82468  0.83576  0.25356     C
H       0.8255   0.7023   0.7886     H
C      0.82606   0.9162  0.66828     C
H       0.8261   0.7059    0.574     H
H       0.8269   0.5295   0.3116     H
C      0.82735  0.61313  0.24516     C
H       0.8298   0.8896   0.6912     H
H       0.8317   0.2971   0.9982     H
O      0.83299  0.83655  0.93664     O
P      0.83312  0.79576  0.97702     P
H       0.8337   0.7513   0.3944     H
C       0.8339  0.32332  0.32792     C
H       0.8339   0.9739   0.3204     H
H       0.8342   0.8094   0.8096     H
O      0.83433  0.57443  0.97676     O
C      0.83503  0.83225  0.30928     C
H       0.8353   0.6729   0.6198     H
C      0.83587  0.33525   0.2777     C
Zn     0.83587  0.64247  0.10628    Zn
H       0.8376   0.3102   0.8894     H
H       0.8379   0.9493    0.003     H
H       0.8414   0.7596   0.6346     H
C      0.84411  0.29031  0.27258     C
H       0.8455   0.5373   0.5092     H
H       0.8455   0.5377   0.5236     H
H       0.8479   0.9821   0.1604     H
H       0.8492   0.7848     0.31     H
C      0.84969  0.73955  0.42686     C
H         0.85   0.0448   0.9728     H
O      0.85009  0.35365  0.43664     O
H       0.8512   0.3872   0.2868     H
C       0.8519  0.71372   0.6121     C
N      0.85537  0.61529  0.17074     N
C       0.8554   0.3979  0.02018     C
H       0.8557   0.6881   0.4206     H
O      0.85732  0.72372  0.95532     O
H       0.8575   0.7897   0.4584     H
H       0.8588   0.4472   0.0462     H
H       0.8603   0.2447   0.2548     H
H       0.8609   0.7311   0.7912     H
H       0.8636   0.7544   0.4014     H
H        0.867   0.7626   0.8476     H
H       0.8677   0.3637   0.0392     H
C      0.86889  0.01515   0.6515     C
H       0.8695   0.5107   0.3904     H
H       0.8706   0.3062   0.2648     H
H       0.8735   0.8715   0.3376     H
C      0.87415  0.97677   0.6844     C
C      0.87568  0.54934   0.3358     C
H       0.8772   0.3322    0.278     H
H        0.881   0.7702   0.4638     H
H       0.8831   0.4975    0.898     H
C      0.88414  0.41766  0.00994     C
H       0.8848   0.3388   0.3554     H
H       0.8852   0.0744   0.2434     H
H       0.8886   0.4484   0.8088     H
H       0.8886   0.4712    0.022     H
O      0.88985  0.84695  0.03232     O
H       0.8899   0.3985   0.0022     H
H       0.8912   0.8406    0.212     H
H       0.8914   0.7834   0.8536     H
C       0.8962  0.59394  0.26892     C
Zn     0.89776  0.85142  0.10186    Zn
H        0.898   0.4032   0.0414     H
C       0.8981  0.83878   0.2474     C
C      0.89848  0.99186  0.18234     C
Zn     0.89892   0.6475  0.97998    Zn
C      0.90037  0.54007  0.38318     C
C       0.9035  0.52802  0.88504     C
H       0.9038   0.0566   0.6624     H
C      0.90778  0.49792  0.83172     C
H       0.9087   0.7627   0.7172     H
H       0.9166      0.4     0.99     H
H        0.919   0.6082   0.7434     H
C      0.91959  0.04787  0.23062     C
C      0.91985  0.58711   0.3219     C
H         0.92    0.795   0.2504     H
C      0.92215  0.59459  0.19212     C
H       0.9222   0.1516   0.9676     H
H       0.9256   0.1148   0.7566     H
H        0.926   0.2164   0.6956     H
H       0.9268   0.1878    0.991     H
N      0.92795  0.59733  0.91512     N
H        0.928    0.223   0.0186     H
H       0.9283   0.5625   0.6604     H
H       0.9306   0.8826   0.2758     H
P      0.93126   0.3939  0.47702     P
C      0.93275  0.56103  0.73062     C
O      0.93357  0.65771  0.10846     O
C      0.93462   0.7181  0.62456     C
C       0.9353  0.00496   0.7391     C
O      0.93537  0.39247  0.53232     O
O      0.93721  0.47113  0.47672     O
C      0.93975  0.54237   0.8156     C
C      0.94008  0.58376   0.2396     C
C      0.94048  0.53386  0.68234     C
H       0.9415   0.2955   0.7828     H
H       0.9423   0.8277   0.6332     H
N      0.94245  0.94951  0.16306     N
H       0.9433   0.6729   0.5986     H
H       0.9434   0.0962   0.3376     H
H       0.9439   0.7745   0.5766     H
C       0.9462  0.51586   0.7609     C
C      0.95156  0.18036  0.00554     C
C      0.95213  0.08041  0.76938     C
H       0.9552     0.15   0.0272     H
H       0.9557   0.5879    0.174     H
C      0.95599  0.74801  0.72374     C
H       0.9568    0.375   0.8654     H
C      0.95962  0.64042  0.89818     C
C      0.96137  0.78435   0.6153     C
H       0.9625   0.1885    0.051     H
N      0.96355  0.47061  0.66306     N
H        0.964   0.9056   0.7388     H
H       0.9655   0.3031   0.8802     H
O      0.96648  0.79076  0.12602     O
C      0.96688  0.44842  0.74146     C
C      0.96739  0.61365   0.8485     C
N      0.96807  0.57119   0.4215     N
C      0.97241  0.22729  0.72404     C
H       0.9752   0.4168   0.7612     H
C      0.97528  0.42802  0.69176     C
C      0.97542  0.95696  0.75854     C
H       0.9772   0.6904   0.9208     H
O      0.97925  0.69383    0.047     O
C      0.97949  0.72241  0.68108     C
P       0.9798  0.71312   0.1038     P
H       0.9804   0.1936   0.4208     H
H       0.9804   0.7708   0.8044     H
O       0.9816    0.348  0.45532     O
C      0.98225  0.27427  0.77626     C
C      0.98485  0.13111   0.3485     C
H       0.9851   0.4091   0.3344     H
H       0.9859   0.5681    0.253     H
H       0.9889   0.2275   0.9398     H
C       0.9898  0.35162   0.8879     C
C         0.99  0.61718  0.36072     C
H       0.9901   0.3817    0.678     H
H       0.9914   0.6442   0.8376     H
C      0.99504   0.0647   0.2609     C
H       0.9951   0.3933    0.312     H
H       0.9954   0.5298     0.05     H
C      0.99837  0.75325  0.77596     C
