data_I
_chemical_name_common  '/home/zhangsd/repos/MofS-CGCNN/ML/data/WS24/clean_cifs/SOYWOT'
_cell_length_a 18.60690
_cell_length_b 18.60690
_cell_length_c 18.60690
_cell_angle_alpha 60.00000
_cell_angle_beta  60.00000
_cell_angle_gamma 60.00000
_space_group_name_H-M_alt      'P 1'


loop_
_space_group_symop_operation_xyz
  'x, y, z' 

loop_
_atom_site_label
_atom_site_fract_x
_atom_site_fract_y
_atom_site_fract_z
_atom_site_type_symbol
O      0.00784  0.47922  0.62612     O
O      0.00784  0.47922  0.88682     O
O      0.00784  0.62612  0.47922     O
O      0.00784  0.62612  0.88682     O
O      0.00784  0.88682  0.47922     O
O      0.00784  0.88682  0.62612     O
H        0.011   0.2278   0.2278     H
H        0.011   0.2278   0.5334     H
H        0.011   0.5334   0.2278     H
C       0.0685   0.0685  0.33714     C
C       0.0685   0.0685  0.52586     C
C       0.0685   0.1987   0.1987     C
C       0.0685   0.1987   0.5341     C
C       0.0685  0.33714   0.0685     C
C       0.0685  0.33714  0.52586     C
C       0.0685  0.52586   0.0685     C
C       0.0685  0.52586  0.33714     C
C       0.0685   0.5341   0.1987     C
Cu     0.07056      0.5      0.5    Cu
Cu     0.07056      0.5  0.92944    Cu
Cu     0.07056  0.92944      0.5    Cu
C       0.1117   0.1117   0.2419     C
C       0.1117   0.1117   0.5347     C
C       0.1117   0.2419   0.1117     C
C       0.1117   0.2419   0.5347     C
C       0.1117   0.5347   0.1117     C
C       0.1117   0.5347   0.2419     C
O      0.11318  0.37388  0.52078     O
O      0.11318  0.37388  0.99216     O
O      0.11318  0.52078  0.37388     O
O      0.11318  0.52078  0.99216     O
O      0.11318  0.99216  0.37388     O
O      0.11318  0.99216  0.52078     O
C       0.1987   0.0685   0.1987     C
C       0.1987   0.0685   0.5341     C
C       0.1987   0.1987   0.0685     C
C       0.1987   0.1987   0.5341     C
C       0.1987   0.5341   0.0685     C
C       0.1987   0.5341   0.1987     C
H       0.2278    0.011   0.2278     H
H       0.2278    0.011   0.5334     H
H       0.2278   0.2278    0.011     H
H       0.2278   0.2278   0.5334     H
H       0.2278   0.5334    0.011     H
H       0.2278   0.5334   0.2278     H
C       0.2419   0.1117   0.1117     C
C       0.2419   0.1117   0.5347     C
C       0.2419   0.5347   0.1117     C
C      0.33714   0.0685   0.0685     C
C      0.33714   0.0685  0.52586     C
C      0.33714  0.52586   0.0685     C
O      0.37388  0.11318  0.52078     O
O      0.37388  0.11318  0.99216     O
O      0.37388  0.52078  0.11318     O
O      0.37388  0.52078  0.99216     O
O      0.37388  0.99216  0.11318     O
O      0.37388  0.99216  0.52078     O
C       0.4653   0.7581   0.8883     C
C       0.4653   0.8883   0.7581     C
C       0.4653   0.8883   0.8883     C
C       0.4659   0.8013   0.8013     C
C       0.4659   0.8013   0.9315     C
C       0.4659   0.9315   0.8013     C
H       0.4666   0.7722   0.7722     H
H       0.4666   0.7722    0.989     H
H       0.4666    0.989   0.7722     H
C      0.47414  0.66286   0.9315     C
C      0.47414   0.9315  0.66286     C
C      0.47414   0.9315   0.9315     C
O      0.47922  0.00784  0.62612     O
O      0.47922  0.00784  0.88682     O
O      0.47922  0.62612  0.00784     O
O      0.47922  0.62612  0.88682     O
O      0.47922  0.88682  0.00784     O
O      0.47922  0.88682  0.62612     O
Cu         0.5  0.07056      0.5    Cu
Cu         0.5  0.07056  0.92944    Cu
Cu         0.5      0.5  0.07056    Cu
Cu         0.5      0.5  0.92944    Cu
Cu         0.5  0.92944  0.07056    Cu
Cu         0.5  0.92944      0.5    Cu
O      0.52078  0.11318  0.37388     O
O      0.52078  0.11318  0.99216     O
O      0.52078  0.37388  0.11318     O
O      0.52078  0.37388  0.99216     O
O      0.52078  0.99216  0.11318     O
O      0.52078  0.99216  0.37388     O
C      0.52586   0.0685   0.0685     C
C      0.52586   0.0685  0.33714     C
C      0.52586  0.33714   0.0685     C
H       0.5334    0.011   0.2278     H
H       0.5334   0.2278    0.011     H
H       0.5334   0.2278   0.2278     H
C       0.5341   0.0685   0.1987     C
C       0.5341   0.1987   0.0685     C
C       0.5341   0.1987   0.1987     C
C       0.5347   0.1117   0.1117     C
C       0.5347   0.1117   0.2419     C
C       0.5347   0.2419   0.1117     C
O      0.62612  0.00784  0.47922     O
O      0.62612  0.00784  0.88682     O
O      0.62612  0.47922  0.00784     O
O      0.62612  0.47922  0.88682     O
O      0.62612  0.88682  0.00784     O
O      0.62612  0.88682  0.47922     O
C      0.66286  0.47414   0.9315     C
C      0.66286   0.9315  0.47414     C
C      0.66286   0.9315   0.9315     C
C       0.7581   0.4653   0.8883     C
C       0.7581   0.8883   0.4653     C
C       0.7581   0.8883   0.8883     C
H       0.7722   0.4666   0.7722     H
H       0.7722   0.4666    0.989     H
H       0.7722   0.7722   0.4666     H
H       0.7722   0.7722    0.989     H
H       0.7722    0.989   0.4666     H
H       0.7722    0.989   0.7722     H
C       0.8013   0.4659   0.8013     C
C       0.8013   0.4659   0.9315     C
C       0.8013   0.8013   0.4659     C
C       0.8013   0.8013   0.9315     C
C       0.8013   0.9315   0.4659     C
C       0.8013   0.9315   0.8013     C
O      0.88682  0.00784  0.47922     O
O      0.88682  0.00784  0.62612     O
O      0.88682  0.47922  0.00784     O
O      0.88682  0.47922  0.62612     O
O      0.88682  0.62612  0.00784     O
O      0.88682  0.62612  0.47922     O
C       0.8883   0.4653   0.7581     C
C       0.8883   0.4653   0.8883     C
C       0.8883   0.7581   0.4653     C
C       0.8883   0.7581   0.8883     C
C       0.8883   0.8883   0.4653     C
C       0.8883   0.8883   0.7581     C
Cu     0.92944  0.07056      0.5    Cu
Cu     0.92944      0.5  0.07056    Cu
Cu     0.92944      0.5      0.5    Cu
C       0.9315   0.4659   0.8013     C
C       0.9315  0.47414  0.66286     C
C       0.9315  0.47414   0.9315     C
C       0.9315  0.66286  0.47414     C
C       0.9315  0.66286   0.9315     C
C       0.9315   0.8013   0.4659     C
C       0.9315   0.8013   0.8013     C
C       0.9315   0.9315  0.47414     C
C       0.9315   0.9315  0.66286     C
H        0.989   0.4666   0.7722     H
H        0.989   0.7722   0.4666     H
H        0.989   0.7722   0.7722     H
O      0.99216  0.11318  0.37388     O
O      0.99216  0.11318  0.52078     O
O      0.99216  0.37388  0.11318     O
O      0.99216  0.37388  0.52078     O
O      0.99216  0.52078  0.11318     O
O      0.99216  0.52078  0.37388     O
