data_I
_chemical_name_common  '/home/zhangsd/repos/MofS-CGCNN/ML/data/WS24/clean_cifs/TAQGOK'
_cell_length_a 24.32260
_cell_length_b 18.46170
_cell_length_c  8.87680
_cell_angle_alpha 90.00000
_cell_angle_beta  108.49300
_cell_angle_gamma 90.00000
_space_group_name_H-M_alt      'P 1'


loop_
_space_group_symop_operation_xyz
  'x, y, z' 

loop_
_atom_site_label
_atom_site_fract_x
_atom_site_fract_y
_atom_site_fract_z
_atom_site_type_symbol
O          0.0   0.2625     0.25     O
Co         0.0  0.28312     0.75    Co
Co         0.0  0.71688     0.25    Co
O          0.0   0.7375     0.75     O
H      0.01395  0.42049  0.96762     H
H      0.01395  0.57951  0.46762     H
O       0.0361   0.2835   0.5709     O
O       0.0361   0.7165   0.0709     O
C       0.0527   0.4125   0.9695     C
C       0.0527   0.5875   0.4695     C
Cr     0.05656  0.29404   0.4166    Cr
Cr     0.05656  0.70596   0.9166    Cr
N       0.0606   0.2022   0.8756     N
N       0.0606   0.7978   0.3756     N
H      0.06172  0.23776  0.08758     H
H      0.06172  0.76224  0.58758     H
N       0.0626   0.3607   0.8747     N
N       0.0626   0.6393   0.3747     N
H      0.07249  0.15245  0.69241     H
H      0.07249  0.84755  0.19241     H
C       0.0798   0.2051   0.0351     C
C       0.0798   0.7949   0.5351     C
C       0.0863    0.156    0.805     C
C       0.0863    0.844    0.305     C
H      0.08828  0.49184  0.13731     H
H      0.08828  0.50816  0.63731     H
C       0.0971   0.4558    0.072     C
C       0.0971   0.5442    0.572     C
C       0.1189    0.353   0.8766     C
C       0.1189    0.647   0.3766     C
C       0.1246   0.1625   0.1255     C
C       0.1246   0.8375   0.6255     C
H        0.127  0.31871  0.80662     H
H        0.127  0.68129  0.30662     H
C       0.1323   0.1129   0.8877     C
C       0.1323   0.8871   0.3877     C
H       0.1356   0.1646   0.2381     H
H       0.1356   0.8354   0.7381     H
H       0.1496   0.0805  0.83282     H
H       0.1496   0.9195  0.33282     H
C       0.1533   0.1175    0.055     C
C       0.1533   0.8825    0.555     C
C       0.1547    0.444   0.0744     C
C       0.1547    0.556   0.5744     C
C       0.1638   0.3919   0.9734     C
C       0.1638   0.6081   0.4734     C
H      0.17135  0.41722  0.57226     H
H      0.17135  0.58278  0.07226     H
H      0.17325  0.02175  0.54219     H
H      0.17325  0.97825  0.04219     H
H      0.20205  0.38306  0.97133     H
H      0.20205  0.61694  0.47133     H
H      0.20353  0.30041  0.64317     H
H      0.20353  0.69959  0.14317     H
C       0.2036   0.4385     0.65     C
C       0.2036   0.4875   0.1742     C
C       0.2036   0.5125   0.6742     C
C       0.2036   0.5615     0.15     C
C       0.2041   0.0742     0.15     C
C       0.2041   0.9258     0.65     C
C       0.2049   0.0006   0.6224     C
C       0.2049   0.9994   0.1224     C
H      0.21504  0.36044  0.33743     H
H      0.21504  0.63956  0.83743     H
H      0.21629  0.13473  0.57925     H
H      0.21629  0.86527  0.07925     H
H      0.23004  0.20347  0.35045     H
H      0.23004  0.79653  0.85045     H
H      0.24228  0.15034  0.76582     H
H      0.24228  0.84966  0.26582     H
C       0.2435    0.312   0.7067     C
C       0.2435    0.688   0.2067     C
H      0.24675   0.2134  0.19121     H
H      0.24675   0.7866  0.69121     H
C       0.2483   0.1242   0.6763     C
C       0.2483   0.8758   0.1763     C
C       0.2493    0.394   0.7358     C
C       0.2493    0.606   0.2358     C
C       0.2497   0.4549   0.2916     C
C       0.2497   0.5451   0.7916     C
C       0.2503   0.0451   0.7084     C
C       0.2503   0.9549   0.2084     C
C       0.2507    0.106   0.2642     C
C       0.2507    0.894   0.7642     C
C       0.2517   0.3758   0.3237     C
C       0.2517   0.6242   0.8237     C
H      0.25325   0.2866  0.80879     H
H      0.25325   0.7134  0.30879     H
C       0.2565    0.188   0.2933     C
C       0.2565    0.812   0.7933     C
H      0.25772  0.34966  0.23418     H
H      0.25772  0.65034  0.73418     H
H      0.26996  0.29653  0.64955     H
H      0.26996  0.70347  0.14955     H
H      0.28371  0.36527  0.42075     H
H      0.28371  0.63473  0.92075     H
H      0.28496  0.13956  0.66257     H
H      0.28496  0.86044  0.16257     H
C       0.2951   0.4994   0.3776     C
C       0.2951   0.5006   0.8776     C
C       0.2959   0.4258     0.85     C
C       0.2959   0.5742     0.35     C
C       0.2964   0.0125   0.8258     C
C       0.2964   0.0615     0.35     C
C       0.2964   0.9385     0.85     C
C       0.2964   0.9875   0.3258     C
H      0.29647  0.19959  0.35683     H
H      0.29647  0.80041  0.85683     H
H      0.29795  0.11694  0.02867     H
H      0.29795  0.88306  0.52867     H
H      0.32675  0.47825  0.45781     H
H      0.32675  0.52175  0.95781     H
H      0.32865  0.08278  0.42774     H
H      0.32865  0.91722  0.92774     H
C       0.3362   0.1081   0.0266     C
C       0.3362   0.8919   0.5266     C
C       0.3453    0.056   0.9256     C
C       0.3453    0.944   0.4256     C
C       0.3467   0.3825    0.945     C
C       0.3467   0.6175    0.445     C
H       0.3504   0.4195  0.16718     H
H       0.3504   0.5805  0.66718     H
H       0.3644   0.3354   0.7619     H
H       0.3644   0.6646   0.2619     H
C       0.3677   0.3871   0.1123     C
C       0.3677   0.6129   0.6123     C
H        0.373  0.18129  0.19338     H
H        0.373  0.81871  0.69338     H
C       0.3754   0.3375   0.8745     C
C       0.3754   0.6625   0.3745     C
C       0.3811    0.147   0.1234     C
C       0.3811    0.853   0.6234     C
C       0.4029   0.0442    0.928     C
C       0.4029   0.9558    0.428     C
H      0.41172  0.00816  0.86269     H
H      0.41172  0.99184  0.36269     H
C       0.4137    0.344    0.195     C
C       0.4137    0.656    0.695     C
C       0.4202   0.2949   0.9649     C
C       0.4202   0.7051   0.4649     C
H      0.42751  0.34755  0.30759     H
H      0.42751  0.65245  0.80759     H
N       0.4374   0.1393   0.1253     N
N       0.4374   0.8607   0.6253     N
H      0.43828  0.26224  0.91242     H
H      0.43828  0.73776  0.41242     H
N       0.4394   0.2978   0.1244     N
N       0.4394   0.7022   0.6244     N
Cr     0.44344  0.20596   0.5834    Cr
Cr     0.44344  0.79404   0.0834    Cr
C       0.4473   0.0875   0.0305     C
C       0.4473   0.9125   0.5305     C
O       0.4639   0.2165   0.4291     O
O       0.4639   0.7835   0.9291     O
H      0.48605  0.07951  0.03238     H
H      0.48605  0.92049  0.53238     H
Co         0.5  0.21688     0.25    Co
O          0.5   0.2375     0.75     O
O          0.5   0.7625     0.25     O
Co         0.5  0.78312     0.75    Co
H      0.51395  0.07951  0.46762     H
H      0.51395  0.92049  0.96762     H
O       0.5361   0.2165   0.0709     O
O       0.5361   0.7835   0.5709     O
C       0.5527   0.0875   0.4695     C
C       0.5527   0.9125   0.9695     C
Cr     0.55656  0.20596   0.9166    Cr
Cr     0.55656  0.79404   0.4166    Cr
N       0.5606   0.2978   0.3756     N
N       0.5606   0.7022   0.8756     N
H      0.56172  0.26224  0.58758     H
H      0.56172  0.73776  0.08758     H
N       0.5626   0.1393   0.3747     N
N       0.5626   0.8607   0.8747     N
H      0.57249  0.34755  0.19241     H
H      0.57249  0.65245  0.69241     H
C       0.5798   0.2949   0.5351     C
C       0.5798   0.7051   0.0351     C
C       0.5863    0.344    0.305     C
C       0.5863    0.656    0.805     C
H      0.58828  0.00816  0.63731     H
H      0.58828  0.99184  0.13731     H
C       0.5971   0.0442    0.572     C
C       0.5971   0.9558    0.072     C
C       0.6189    0.147   0.3766     C
C       0.6189    0.853   0.8766     C
C       0.6246   0.3375   0.6255     C
C       0.6246   0.6625   0.1255     C
H        0.627  0.18129  0.30662     H
H        0.627  0.81871  0.80662     H
C       0.6323   0.3871   0.3877     C
C       0.6323   0.6129   0.8877     C
H       0.6356   0.3354   0.7381     H
H       0.6356   0.6646   0.2381     H
H       0.6496   0.4195  0.33282     H
H       0.6496   0.5805  0.83282     H
C       0.6533   0.3825    0.555     C
C       0.6533   0.6175    0.055     C
C       0.6547    0.056   0.5744     C
C       0.6547    0.944   0.0744     C
C       0.6638   0.1081   0.4734     C
C       0.6638   0.8919   0.9734     C
H      0.67135  0.08278  0.07226     H
H      0.67135  0.91722  0.57226     H
H      0.67325  0.47825  0.04219     H
H      0.67325  0.52175  0.54219     H
H      0.70205  0.11694  0.47133     H
H      0.70205  0.88306  0.97133     H
H      0.70353  0.19959  0.14317     H
H      0.70353  0.80041  0.64317     H
C       0.7036   0.0125   0.6742     C
C       0.7036   0.0615     0.15     C
C       0.7036   0.9385     0.65     C
C       0.7036   0.9875   0.1742     C
C       0.7041   0.4258     0.65     C
C       0.7041   0.5742     0.15     C
C       0.7049   0.4994   0.1224     C
C       0.7049   0.5006   0.6224     C
H      0.71504  0.13956  0.83743     H
H      0.71504  0.86044  0.33743     H
H      0.71629  0.36527  0.07925     H
H      0.71629  0.63473  0.57925     H
H      0.73004  0.29653  0.85045     H
H      0.73004  0.70347  0.35045     H
H      0.74228  0.34966  0.26582     H
H      0.74228  0.65034  0.76582     H
C       0.7435    0.188   0.2067     C
C       0.7435    0.812   0.7067     C
H      0.74675   0.2866  0.69121     H
H      0.74675   0.7134  0.19121     H
C       0.7483   0.3758   0.1763     C
C       0.7483   0.6242   0.6763     C
C       0.7493    0.106   0.2358     C
C       0.7493    0.894   0.7358     C
C       0.7497   0.0451   0.7916     C
C       0.7497   0.9549   0.2916     C
C       0.7503   0.4549   0.2084     C
C       0.7503   0.5451   0.7084     C
C       0.7507    0.394   0.7642     C
C       0.7507    0.606   0.2642     C
C       0.7517   0.1242   0.8237     C
C       0.7517   0.8758   0.3237     C
H      0.75325   0.2134  0.30879     H
H      0.75325   0.7866  0.80879     H
C       0.7565    0.312   0.7933     C
C       0.7565    0.688   0.2933     C
H      0.75772  0.15034  0.73418     H
H      0.75772  0.84966  0.23418     H
H      0.76996  0.20347  0.14955     H
H      0.76996  0.79653  0.64955     H
H      0.78371  0.13473  0.92075     H
H      0.78371  0.86527  0.42075     H
H      0.78496  0.36044  0.16257     H
H      0.78496  0.63956  0.66257     H
C       0.7951   0.0006   0.8776     C
C       0.7951   0.9994   0.3776     C
C       0.7959   0.0742     0.35     C
C       0.7959   0.9258     0.85     C
C       0.7964   0.4385     0.85     C
C       0.7964   0.4875   0.3258     C
C       0.7964   0.5125   0.8258     C
C       0.7964   0.5615     0.35     C
H      0.79647  0.30041  0.85683     H
H      0.79647  0.69959  0.35683     H
H      0.79795  0.38306  0.52867     H
H      0.79795  0.61694  0.02867     H
H      0.82675  0.02175  0.95781     H
H      0.82675  0.97825  0.45781     H
H      0.82865  0.41722  0.92774     H
H      0.82865  0.58278  0.42774     H
C       0.8362   0.3919   0.5266     C
C       0.8362   0.6081   0.0266     C
C       0.8453    0.444   0.4256     C
C       0.8453    0.556   0.9256     C
C       0.8467   0.1175    0.445     C
C       0.8467   0.8825    0.945     C
H       0.8504   0.0805  0.66718     H
H       0.8504   0.9195  0.16718     H
H       0.8644   0.1646   0.2619     H
H       0.8644   0.8354   0.7619     H
C       0.8677   0.1129   0.6123     C
C       0.8677   0.8871   0.1123     C
H        0.873  0.31871  0.69338     H
H        0.873  0.68129  0.19338     H
C       0.8754   0.1625   0.3745     C
C       0.8754   0.8375   0.8745     C
C       0.8811    0.353   0.6234     C
C       0.8811    0.647   0.1234     C
C       0.9029   0.4558    0.428     C
C       0.9029   0.5442    0.928     C
H      0.91172  0.49184  0.36269     H
H      0.91172  0.50816  0.86269     H
C       0.9137    0.156    0.695     C
C       0.9137    0.844    0.195     C
C       0.9202   0.2051   0.4649     C
C       0.9202   0.7949   0.9649     C
H      0.92751  0.15245  0.80759     H
H      0.92751  0.84755  0.30759     H
N       0.9374   0.3607   0.6253     N
N       0.9374   0.6393   0.1253     N
H      0.93828  0.23776  0.41242     H
H      0.93828  0.76224  0.91242     H
N       0.9394   0.2022   0.6244     N
N       0.9394   0.7978   0.1244     N
Cr     0.94344  0.29404   0.0834    Cr
Cr     0.94344  0.70596   0.5834    Cr
C       0.9473   0.4125   0.5305     C
C       0.9473   0.5875   0.0305     C
O       0.9639   0.2835   0.9291     O
O       0.9639   0.7165   0.4291     O
H      0.98605  0.42049  0.53238     H
H      0.98605  0.57951  0.03238     H
