data_I
_chemical_name_common  '/home/zhangsd/repos/MofS-CGCNN/ML/data/WS24/clean_cifs/TEBWII'
_cell_length_a 16.02100
_cell_length_b 19.24700
_cell_length_c 22.48200
_cell_angle_alpha 90.00000
_cell_angle_beta  90.00000
_cell_angle_gamma 90.43000
_space_group_name_H-M_alt      'P 1'


loop_
_space_group_symop_operation_xyz
  'x, y, z' 

loop_
_atom_site_label
_atom_site_fract_x
_atom_site_fract_y
_atom_site_fract_z
_atom_site_type_symbol
H       0.0008      0.2   0.6432     H
H       0.0009   0.6948   0.1145     H
C       0.0054   0.4124   0.0419     C
C        0.009    0.084   0.4547     C
C       0.0105   0.3009   0.8433     C
C       0.0124   0.1663   0.6742     C
C       0.0189   0.2021   0.7325     C
H       0.0212   0.3848   0.0078     H
N        0.023   0.9369   0.6777     N
N       0.0247   0.5801   0.8222     N
H        0.025   0.1669    0.763     H
H       0.0251   0.8328   0.5974     H
C       0.0263   0.3692   0.8195     C
H       0.0265   0.1137   0.4873     H
C       0.0287   0.5201   0.9791     C
C       0.0295   0.9821   0.5203     C
H        0.032    0.673   0.9098     H
H       0.0404   0.4912   0.9448     H
H       0.0444    0.013   0.5528     H
H        0.046   0.3656   0.7788     H
H       0.0462   0.7067   0.2697     H
H       0.0473   0.5343   0.7448     H
H       0.0477   0.9847   0.7523     H
N       0.0509   0.5902   0.1789     N
C       0.0517   0.8759   0.5851     C
C       0.0529   0.7509   0.2496     C
H       0.0553   0.4213   0.0652     H
C       0.0566   0.6288   0.9204     C
N       0.0568   0.8874   0.3234     N
H       0.0582   0.0723   0.4318     H
C       0.0596    0.738   0.1847     C
H       0.0609   0.2737   0.8391     H
H       0.0649    0.144   0.6649     H
H        0.065   0.7826   0.1648     H
C       0.0689   0.5491   0.7811     C
H       0.0691   0.3924   0.8428     H
C       0.0691   0.9655   0.7176     C
H       0.0697   0.2298   0.7324     H
N       0.0779   0.9135   0.6376     N
H       0.0801   0.9708   0.4988     H
N       0.0809   0.5922   0.8659     N
H       0.0812   0.5289   0.9994     H
H       0.0852   0.5801   0.2627     H
H       0.0859   0.9062   0.2388     H
N       0.0866   0.5714   0.1273     N
N       0.0903   0.9108    0.376     N
C       0.0966   0.5712   0.2229     C
C        0.098   0.9144   0.2787     C
H       0.1007   0.8642    0.562     H
H       0.1048   0.7717   0.2633     H
H       0.1061   0.6383   0.9439     H
H       0.1107   0.7126   0.1775     H
H       0.1119   0.1086   0.2522     H
H       0.1135   0.3876   0.2462     H
H       0.1145   0.2342   0.0402     H
H       0.1233   0.2295   0.4382     H
H       0.1381   0.2336   0.5709     H
H       0.1423   0.2021   0.1322     H
N       0.1485   0.5411   0.7975     N
H       0.1501   0.2972   0.3697     H
C       0.1512   0.9515    0.358     C
N       0.1512   0.9652   0.7047     N
C       0.1523   0.5395   0.1442     C
C       0.1529    0.567   0.8517     C
C       0.1552   0.9316   0.6543     C
H       0.1576   0.2998   0.0685     H
C       0.1577    0.126   0.2729     C
H       0.1585   0.1661   0.5335     H
C       0.1586   0.3702    0.225     C
N       0.1589   0.3094   0.1995     N
N       0.1591   0.1886   0.2954     N
H       0.1599   0.2644   0.9371     H
N         0.16   0.9557   0.2983     N
N       0.1624   0.5369   0.2029     N
C       0.1667   0.2522   0.0561     C
H       0.1706   0.6264   0.6676     H
H       0.1713   0.8751   0.8249     H
H       0.1714   0.6864   0.4329     H
C       0.1797    0.211   0.5464     C
C        0.183    0.238   0.4382     C
H       0.1834   0.3025   0.5008     H
H       0.1847   0.7489   0.8647     H
H       0.1856   0.9756   0.3843     H
H       0.1888   0.3348   0.9659     H
H       0.1899   0.5198   0.1176     H
H       0.1906   0.7519   0.6243     H
C       0.1915   0.2103    0.108     C
H       0.2001   0.5671   0.8758     H
H       0.2007   0.8217   0.0536     H
C       0.2017   0.2857   0.3899     C
H       0.2018   0.7557   0.4029     H
H       0.2039   0.9218   0.6335     H
C        0.205   0.2563   0.4937     C
C       0.2062    0.288   0.9564     C
H       0.2097   0.1942   0.4292     H
H       0.2102   0.1655   0.0938     H
H       0.2152   0.7494    0.084     H
C       0.2183   0.7089   0.4132     C
H       0.2221   0.7286   0.5277     H
H       0.2223    0.338   0.7301     H
H       0.2225   0.1704   0.7676     H
C       0.2233   0.6363   0.6829     C
H       0.2246   0.3283   0.4064     H
C       0.2253   0.8665   0.8118     C
C        0.227   0.2513   0.0118     C
N       0.2273   0.0885   0.2819     N
H       0.2278   0.7924   0.6789     H
H       0.2309    0.709   0.8139     H
C       0.2315   0.1602   0.7277     C
N       0.2319   0.4054    0.217     N
N       0.2339    0.306   0.1744     N
C       0.2343   0.3454   0.7701     C
H       0.2343   0.7396   0.9943     H
N       0.2345   0.1917   0.3201     N
H       0.2351   0.5682   0.3801     H
N       0.2383    0.671   0.3595     N
N       0.2384   0.0941    0.706     N
C       0.2384   0.7426   0.8456     C
H       0.2386   0.2032    0.002     H
N       0.2388   0.2064   0.6873     N
H        0.239   0.9323   0.1209     H
C       0.2391   0.7953    0.078     C
C       0.2407   0.7594   0.6477     C
N       0.2412   0.4103   0.7948     N
C       0.2425   0.6019   0.3509     C
Cu       0.243  0.50091  0.75013    Cu
N       0.2462   0.2943   0.8086     N
Cu      0.2469  0.00407  0.75108    Cu
C       0.2481   0.8971   0.1484     C
N       0.2498   0.8304   0.1367     N
N       0.2502   0.1696   0.6367     N
C       0.2519   0.1029   0.6484     C
Cu      0.2531  0.99593  0.25108    Cu
N       0.2538   0.7057   0.3086     N
Cu       0.257  0.49909  0.25013    Cu
C       0.2575   0.3981   0.8509     C
N       0.2588   0.5897   0.2948     N
C       0.2593   0.2406   0.1477     C
C       0.2609   0.2047    0.578     C
H        0.261   0.0677   0.6209     H
N       0.2612   0.7936   0.1873     N
H       0.2614   0.7968    0.502     H
C       0.2616   0.2574   0.3456     C
N       0.2616   0.9059    0.206     N
N       0.2617    0.329   0.8595     N
H       0.2649   0.4318   0.8801     H
N       0.2655   0.8083   0.8201     N
H       0.2657   0.2604   0.4943     H
C       0.2657   0.6546   0.2701     C
N       0.2661    0.694   0.6744     N
N       0.2681   0.5946    0.717     N
C       0.2685   0.8398   0.2277     C
H       0.2691    0.291   0.3139     H
H       0.2722   0.2076   0.1789     H
N       0.2727   0.9115   0.7819     N
C        0.273   0.7487   0.5118     C
C       0.2747   0.1335   0.3118     C
H       0.2754   0.6717   0.9064     H
C       0.2767   0.3637   0.1829     C
H       0.2775   0.8296   0.2676     H
H       0.2777    0.662   0.2301     H
H       0.2779   0.2714   0.0277     H
C       0.2817   0.2911   0.9132     C
H       0.2848   0.2506    0.584     H
H       0.2898   0.8345   0.5938     H
H       0.2903   0.8058   0.9292     H
C       0.2938    0.712   0.4564     C
C        0.295   0.7437   0.9937     C
H       0.2961   0.0782   0.1335     H
H       0.2982   0.2443   0.9029     H
C       0.2983   0.7143   0.8899     C
H       0.2993   0.1783   0.5536     H
H       0.2999   0.4329   0.3758     H
C       0.3085   0.7897    0.608     C
H       0.3094   0.2481   0.1243     H
H       0.3101   0.4802   0.6176     H
H       0.3112   0.6652   0.4659     H
H       0.3144   0.0244   0.8843     H
H       0.3153   0.2511   0.3647     H
H       0.3166   0.6975   0.0008     H
C        0.317    0.762   0.9382     C
C       0.3203    0.789   0.0464     C
H       0.3286   0.3136   0.9329     H
H       0.3287   0.1249   0.3249     H
H       0.3294   0.3736   0.1676     H
C       0.3333   0.7478   0.5561     C
N       0.3376   0.4631   0.7029     N
N         0.34   0.0443   0.7983     N
H       0.3401   0.7356   0.4371     H
N       0.3409   0.8114   0.7954     N
N       0.3411   0.6906   0.6995     N
C       0.3414   0.6298    0.725     C
H       0.3415   0.8339   0.0335     H
C       0.3423    0.874   0.7729     C
H       0.3424   0.7002   0.5685     H
C       0.3448   0.0684   0.1543     C
C       0.3471    0.433   0.3517     C
C       0.3477   0.4605   0.6442     C
N       0.3488   0.0348   0.2047     N
C       0.3488   0.0485    0.858     C
H       0.3499   0.7028   0.8697     H
N       0.3515   0.4589   0.2975     N
H       0.3577   0.7979   0.6322     H
H       0.3619   0.7664   0.0709     H
H       0.3767   0.7705   0.9382     H
H       0.3855   0.7658   0.5402     H
H       0.3865   0.6124   0.7462     H
H       0.3881   0.8914   0.7522     H
H       0.3893   0.2874   0.6775     H
H       0.3939   0.3617   0.4439     H
H       0.3952   0.2283   0.7633     H
H       0.3993   0.1358    0.062     H
C        0.402   0.0856   0.7787     C
C       0.4034   0.4288   0.7229     C
N       0.4097   0.0892    0.876     N
N       0.4134   0.4286   0.6273     N
H       0.4141   0.0938   0.7388     H
H       0.4148   0.4199   0.7627     H
H       0.4188   0.4711   0.4994     H
N       0.4191   0.4078   0.3659     N
H       0.4199   0.0292   0.9988     H
N       0.4221   0.0865   0.1376     N
H       0.4303   0.7702   0.2324     H
C       0.4309   0.0345   0.2176     C
H       0.4309   0.6076   0.3428     H
C       0.4311   0.4509   0.2811     C
H        0.435   0.2174   0.6648     H
H       0.4351    0.856   0.1649     H
H       0.4391   0.7263   0.3391     H
C       0.4404    0.262   0.6847     C
H       0.4418   0.9277   0.9318     H
N       0.4432   0.1126   0.8234     N
C       0.4434   0.3712   0.4204     C
H       0.4447   0.5787   0.5652     H
C       0.4471   0.2491   0.7496     C
C       0.4483   0.1241   0.0851     C
N       0.4491   0.4098   0.6789     N
H       0.4523   0.0153   0.2523     H
H       0.4527   0.4657   0.2448     H
H       0.4538   0.2933   0.7697     H
H        0.454   0.6344   0.2788     H
H       0.4556    0.987   0.0528     H
H       0.4596   0.5088   0.4448     H
H        0.468    0.327   0.4098     H
C       0.4705   0.0179   0.0203     C
C       0.4713   0.4799   0.4791     C
H       0.4735   0.8863   0.9873     H
C       0.4737   0.6308   0.3195     C
H       0.4749   0.1672   0.0974     H
H        0.475   0.8331    0.263     H
N       0.4753   0.4199   0.3222     N
N        0.477   0.0631   0.1777     N
H       0.4788   0.6152   0.5078     H
C       0.4811   0.7979   0.2325     C
C       0.4876   0.8337   0.1742     C
C       0.4895   0.6991   0.3433     C
C        0.491    0.916   0.9547     C
C       0.4946   0.5876   0.5419     C
H       0.4991   0.3052   0.6145     H
H       0.4992      0.8   0.1432     H
H       0.5008      0.2   0.8568     H
H       0.5009   0.6948   0.3855     H
C       0.5054   0.4124   0.4581     C
C        0.509    0.084   0.0453     C
C       0.5105   0.3009   0.6567     C
C       0.5124   0.1663   0.8258     C
C       0.5189   0.2021   0.7675     C
H       0.5212   0.3848   0.4922     H
N        0.523   0.9369   0.8223     N
N       0.5247   0.5801   0.6778     N
H        0.525   0.1669    0.737     H
H       0.5251   0.8328   0.9026     H
C       0.5263   0.3692   0.6805     C
H       0.5265   0.1137   0.0127     H
C       0.5287   0.5201   0.5209     C
C       0.5295   0.9821   0.9797     C
H        0.532    0.673   0.5902     H
H       0.5404   0.4912   0.5552     H
H       0.5444    0.013   0.9472     H
H        0.546   0.3656   0.7212     H
H       0.5462   0.7067   0.2303     H
H       0.5473   0.5343   0.7552     H
H       0.5477   0.9847   0.7477     H
N       0.5509   0.5902   0.3211     N
C       0.5517   0.8759   0.9149     C
C       0.5529   0.7509   0.2504     C
H       0.5553   0.4213   0.4348     H
C       0.5566   0.6288   0.5796     C
N       0.5568   0.8874   0.1766     N
H       0.5582   0.0723   0.0682     H
C       0.5596    0.738   0.3153     C
H       0.5609   0.2737   0.6609     H
H       0.5649    0.144   0.8351     H
H        0.565   0.7826   0.3352     H
C       0.5689   0.5491   0.7189     C
H       0.5691   0.3924   0.6572     H
C       0.5691   0.9655   0.7824     C
H       0.5697   0.2298   0.7676     H
N       0.5779   0.9135   0.8624     N
H       0.5801   0.9708   0.0012     H
N       0.5809   0.5922   0.6341     N
H       0.5812   0.5289   0.5006     H
H       0.5852   0.5801   0.2373     H
H       0.5859   0.9062   0.2612     H
N       0.5866   0.5714   0.3727     N
N       0.5903   0.9108    0.124     N
C       0.5966   0.5712   0.2771     C
C        0.598   0.9144   0.2213     C
H       0.6007   0.8642    0.938     H
H       0.6048   0.7717   0.2367     H
H       0.6061   0.6383   0.5561     H
H       0.6107   0.7126   0.3225     H
H       0.6119   0.1086   0.2478     H
H       0.6135   0.3876   0.2538     H
H       0.6145   0.2342   0.4598     H
H       0.6233   0.2295   0.0618     H
H       0.6381   0.2336   0.9291     H
H       0.6423   0.2021   0.3678     H
N       0.6485   0.5411   0.7025     N
H       0.6501   0.2972   0.1303     H
C       0.6512   0.9515    0.142     C
N       0.6512   0.9652   0.7953     N
C       0.6523   0.5395   0.3558     C
C       0.6529    0.567   0.6483     C
C       0.6552   0.9316   0.8457     C
H       0.6576   0.2998   0.4315     H
C       0.6577    0.126   0.2271     C
H       0.6585   0.1661   0.9665     H
C       0.6586   0.3702    0.275     C
N       0.6589   0.3094   0.3005     N
N       0.6591   0.1886   0.2046     N
H       0.6599   0.2644   0.5629     H
N         0.66   0.9557   0.2017     N
N       0.6624   0.5369   0.2971     N
C       0.6667   0.2522   0.4439     C
H       0.6706   0.6264   0.8324     H
H       0.6713   0.8751   0.6751     H
H       0.6714   0.6864   0.0671     H
C       0.6797    0.211   0.9536     C
C        0.683    0.238   0.0618     C
H       0.6834   0.3025   0.9992     H
H       0.6847   0.7489   0.6353     H
H       0.6856   0.9756   0.1157     H
H       0.6888   0.3348   0.5341     H
H       0.6899   0.5198   0.3824     H
H       0.6906   0.7519   0.8757     H
C       0.6915   0.2103    0.392     C
H       0.7001   0.5671   0.6242     H
H       0.7007   0.8217   0.4464     H
C       0.7017   0.2857   0.1101     C
H       0.7018   0.7557   0.0971     H
H       0.7039   0.9218   0.8665     H
C        0.705   0.2563   0.0063     C
C       0.7062    0.288   0.5436     C
H       0.7097   0.1942   0.0708     H
H       0.7102   0.1655   0.4062     H
H       0.7152   0.7494    0.416     H
C       0.7183   0.7089   0.0868     C
H       0.7221   0.7286   0.9723     H
H       0.7223    0.338   0.7699     H
H       0.7225   0.1704   0.7324     H
C       0.7233   0.6363   0.8171     C
H       0.7246   0.3283   0.0936     H
C       0.7253   0.8665   0.6882     C
C        0.727   0.2513   0.4882     C
N       0.7273   0.0885   0.2181     N
H       0.7278   0.7924   0.8211     H
H       0.7309    0.709   0.6861     H
C       0.7315   0.1602   0.7723     C
N       0.7319   0.4054    0.283     N
N       0.7339    0.306   0.3256     N
C       0.7343   0.3454   0.7299     C
H       0.7343   0.7396   0.5057     H
N       0.7345   0.1917   0.1799     N
H       0.7351   0.5682   0.1199     H
N       0.7383    0.671   0.1405     N
N       0.7384   0.0941    0.794     N
C       0.7384   0.7426   0.6544     C
H       0.7386   0.2032    0.498     H
N       0.7388   0.2064   0.8127     N
H        0.739   0.9323   0.3791     H
C       0.7391   0.7953    0.422     C
C       0.7407   0.7594   0.8523     C
N       0.7412   0.4103   0.7052     N
C       0.7425   0.6019   0.1491     C
Cu       0.743  0.50091  0.74987    Cu
N       0.7462   0.2943   0.6914     N
Cu      0.7469  0.00407  0.74892    Cu
C       0.7481   0.8971   0.3516     C
N       0.7498   0.8304   0.3633     N
N       0.7502   0.1696   0.8633     N
C       0.7519   0.1029   0.8516     C
Cu      0.7531  0.99593  0.24892    Cu
N       0.7538   0.7057   0.1914     N
Cu       0.757  0.49909  0.24987    Cu
C       0.7575   0.3981   0.6491     C
N       0.7588   0.5897   0.2052     N
C       0.7593   0.2406   0.3523     C
C       0.7609   0.2047    0.922     C
H        0.761   0.0677   0.8791     H
N       0.7612   0.7936   0.3127     N
H       0.7614   0.7968    0.998     H
C       0.7616   0.2574   0.1544     C
N       0.7616   0.9059    0.294     N
N       0.7617    0.329   0.6405     N
H       0.7649   0.4318   0.6199     H
N       0.7655   0.8083   0.6799     N
H       0.7657   0.2604   0.0057     H
C       0.7657   0.6546   0.2299     C
N       0.7661    0.694   0.8256     N
N       0.7681   0.5946    0.783     N
C       0.7685   0.8398   0.2723     C
H       0.7691    0.291   0.1861     H
H       0.7722   0.2076   0.3211     H
N       0.7727   0.9115   0.7181     N
C        0.773   0.7487   0.9882     C
C       0.7747   0.1335   0.1882     C
H       0.7754   0.6717   0.5936     H
C       0.7767   0.3637   0.3171     C
H       0.7775   0.8296   0.2324     H
H       0.7777    0.662   0.2699     H
H       0.7779   0.2714   0.4723     H
C       0.7817   0.2911   0.5868     C
H       0.7848   0.2506    0.916     H
H       0.7898   0.8345   0.9062     H
H       0.7903   0.8058   0.5708     H
C       0.7938    0.712   0.0436     C
C        0.795   0.7437   0.5063     C
H       0.7961   0.0782   0.3665     H
H       0.7982   0.2443   0.5971     H
C       0.7983   0.7143   0.6101     C
H       0.7993   0.1783   0.9464     H
H       0.7999   0.4329   0.1242     H
C       0.8085   0.7897    0.892     C
H       0.8094   0.2481   0.3757     H
H       0.8101   0.4802   0.8824     H
H       0.8112   0.6652   0.0341     H
H       0.8144   0.0244   0.6157     H
H       0.8153   0.2511   0.1353     H
H       0.8166   0.6975   0.4992     H
C        0.817    0.762   0.5618     C
C       0.8203    0.789   0.4536     C
H       0.8286   0.3136   0.5671     H
H       0.8287   0.1249   0.1751     H
H       0.8294   0.3736   0.3324     H
C       0.8333   0.7478   0.9439     C
N       0.8376   0.4631   0.7971     N
N         0.84   0.0443   0.7017     N
H       0.8401   0.7356   0.0629     H
N       0.8409   0.8114   0.7046     N
N       0.8411   0.6906   0.8005     N
C       0.8414   0.6298    0.775     C
H       0.8415   0.8339   0.4665     H
C       0.8423    0.874   0.7271     C
H       0.8424   0.7002   0.9315     H
C       0.8448   0.0684   0.3457     C
C       0.8471    0.433   0.1483     C
C       0.8477   0.4605   0.8558     C
N       0.8488   0.0348   0.2953     N
C       0.8488   0.0485    0.642     C
H       0.8499   0.7028   0.6303     H
N       0.8515   0.4589   0.2025     N
H       0.8577   0.7979   0.8678     H
H       0.8619   0.7664   0.4291     H
H       0.8767   0.7705   0.5618     H
H       0.8855   0.7658   0.9598     H
H       0.8865   0.6124   0.7538     H
H       0.8881   0.8914   0.7478     H
H       0.8893   0.2874   0.8225     H
H       0.8939   0.3617   0.0561     H
H       0.8952   0.2283   0.7367     H
H       0.8993   0.1358    0.438     H
C        0.902   0.0856   0.7213     C
C       0.9034   0.4288   0.7771     C
N       0.9097   0.0892    0.624     N
N       0.9134   0.4286   0.8727     N
H       0.9141   0.0938   0.7612     H
H       0.9148   0.4199   0.7373     H
H       0.9188   0.4711   0.0006     H
N       0.9191   0.4078   0.1341     N
H       0.9199   0.0292   0.5012     H
N       0.9221   0.0865   0.3624     N
H       0.9303   0.7702   0.2676     H
C       0.9309   0.0345   0.2824     C
H       0.9309   0.6076   0.1572     H
C       0.9311   0.4509   0.2189     C
H        0.935   0.2174   0.8352     H
H       0.9351    0.856   0.3351     H
H       0.9391   0.7263   0.1609     H
C       0.9404    0.262   0.8153     C
H       0.9418   0.9277   0.5682     H
N       0.9432   0.1126   0.6766     N
C       0.9434   0.3712   0.0796     C
H       0.9447   0.5787   0.9348     H
C       0.9471   0.2491   0.7504     C
C       0.9483   0.1241   0.4149     C
N       0.9491   0.4098   0.8211     N
H       0.9523   0.0153   0.2477     H
H       0.9527   0.4657   0.2552     H
H       0.9538   0.2933   0.7303     H
H        0.954   0.6344   0.2212     H
H       0.9556    0.987   0.4472     H
H       0.9596   0.5088   0.0552     H
H        0.968    0.327   0.0902     H
C       0.9705   0.0179   0.4797     C
C       0.9713   0.4799   0.0209     C
H       0.9735   0.8863   0.5127     H
C       0.9737   0.6308   0.1805     C
H       0.9749   0.1672   0.4026     H
H        0.975   0.8331    0.237     H
N       0.9753   0.4199   0.1778     N
N        0.977   0.0631   0.3223     N
H       0.9788   0.6152   0.9922     H
C       0.9811   0.7979   0.2675     C
C       0.9876   0.8337   0.3258     C
C       0.9895   0.6991   0.1567     C
C        0.991    0.916   0.5453     C
C       0.9946   0.5876   0.9581     C
H       0.9991   0.3052   0.8855     H
H       0.9992      0.8   0.3568     H
