data_I
_chemical_name_common  '/home/zhangsd/repos/MofS-CGCNN/ML/data/WS24/clean_cifs/TIDSEE'
_cell_length_a 12.79500
_cell_length_b 13.03200
_cell_length_c 20.86400
_cell_angle_alpha 81.91100
_cell_angle_beta  84.45000
_cell_angle_gamma 70.54500
_space_group_name_H-M_alt      'P 1'


loop_
_space_group_symop_operation_xyz
  'x, y, z' 

loop_
_atom_site_label
_atom_site_fract_x
_atom_site_fract_y
_atom_site_fract_z
_atom_site_type_symbol
F       0.0041   0.2776   0.0911     F
Ag     0.00931  0.26298  0.75645    Ag
F       0.0174   0.3988   0.6078     F
C       0.0199   0.6602   0.4255     C
C       0.0257    0.029   0.7491     C
C       0.0292   0.4236   0.7661     C
C       0.0361   0.1928   0.3683     C
F       0.0361   0.9003   0.5427     F
F       0.0377   0.6027   0.4836     F
O       0.0407   0.7255   0.6231     O
O       0.0409   0.3285   0.9682     O
C       0.0419   0.6104   0.0107     C
C       0.0506   0.0926    0.416     C
C       0.0516   0.4979   0.2422     C
F       0.0671   0.2519    0.565     F
F       0.0709   0.9976   0.3933     F
O       0.0717   0.9533   0.2485     O
C       0.0718   0.6428   0.9416     C
F       0.0725   0.8469   0.7381     F
F        0.079    0.877   0.8326     F
Ag      0.0814   0.5671  0.69362    Ag
O       0.0829   0.0909   0.7403     O
Ag     0.09074  0.34374  0.86188    Ag
C       0.0958   0.9148   0.7716     C
F       0.0995   0.5673   0.9011     F
O       0.1068   0.5246   0.0306     O
O       0.1136   0.1775   0.3244     O
C       0.1168   0.6922    0.394     C
Ag     0.11927  0.47778  0.13943    Ag
O       0.1253   0.6972   0.3344     O
F       0.1338   0.0728   0.4543     F
F       0.1455   0.3624   0.4122     F
Ag     0.14855  0.32809  0.26204    Ag
F       0.1581   0.6781   0.9322     F
O       0.1752   0.7128   0.4312     O
Ag     0.18363  0.68431  0.54266    Ag
Ag     0.19813  0.33905  0.73523    Ag
F       0.2016   0.0948    0.077     F
F       0.2055   0.8838   0.7643     F
Ag     0.20669  0.52654  0.25698    Ag
Ag     0.20899  0.02675  0.25902    Ag
O       0.2236   0.5173   0.6104     O
O       0.2259   0.1919   0.1937     O
O       0.2354   0.3062   0.1072     O
C       0.2441   0.2189   0.1365     C
Ag     0.24926  0.78097  0.27156    Ag
C        0.254     0.33   0.4201     C
F       0.2629   0.3219   0.4836     F
Ag     0.26324  0.37908  0.99446    Ag
O       0.2741   0.3329   0.8905     O
C       0.2812   0.1244    0.097     C
F       0.2822   0.4183   0.3979     F
F       0.2926   0.7603    0.634     F
F       0.2937    0.836   0.9001     F
Ag     0.30485  0.80628  0.39843    Ag
O       0.3077    0.784   0.5066     O
C       0.3098   0.4407   0.6161     C
O        0.316   0.2431   0.3292     O
C       0.3221   0.2305   0.3886     C
O       0.3323   0.3597   0.6591     O
F        0.338   0.1414   0.0425     F
F       0.3461   0.0305   0.1251     F
C       0.3472   0.8412   0.5327     C
C       0.3513   0.2873   0.8539     C
C       0.3525    0.866   0.3003     C
O       0.3539    0.269   0.7993     O
F        0.357   0.9227    0.952     F
O       0.3623   0.0082   0.8279     O
O       0.3631   0.5518   0.2721     O
O        0.364   0.1478   0.4257     O
C       0.3682   0.8005   0.6026     C
F       0.3725    0.503   0.5118     F
F       0.3746   0.8774   0.6362     F
C       0.3839   0.8625   0.9031     C
O       0.3846   0.9131   0.5105     O
C       0.3972   0.9325   0.3013     C
C       0.4035   0.4391   0.5666     C
Ag     0.40409  0.09996  0.27285    Ag
F       0.4053    0.375   0.2114     F
Ag     0.41893  0.96563  0.39969    Ag
C       0.4197   0.9142   0.8398     C
Ag     0.43489  0.09629  0.74351    Ag
F       0.4353   0.6772   0.7532     F
F       0.4499    0.788   0.1507     F
F         0.45   0.7696    0.932     F
F       0.4577   0.3397   0.5499     F
O       0.4578   0.4599   0.7425     O
C       0.4592   0.2517   0.8861     C
C       0.4594   0.5105   0.2532     C
F       0.4651   0.7207   0.6102     F
F       0.4673   0.5786   0.8407     F
F       0.4729    0.173   0.9354     F
F       0.4789   0.4719   0.5896     F
F       0.4854   0.3261   0.9125     F
Ag     0.48784  0.70856   0.2887    Ag
C       0.4887   0.4098   0.2191     C
O       0.4989   0.1464   0.1841     O
O       0.5011   0.8536   0.8159     O
C       0.5113   0.5902   0.7809     C
Ag     0.51216  0.29144   0.7113    Ag
F       0.5146   0.6739   0.0875     F
F       0.5211   0.5281   0.4104     F
F       0.5271    0.827   0.0646     F
F       0.5327   0.4214   0.1593     F
F       0.5349   0.2793   0.3898     F
C       0.5406   0.4895   0.7468     C
C       0.5408   0.7483   0.1139     C
O       0.5422   0.5401   0.2575     O
F       0.5423   0.6603   0.4501     F
F         0.55   0.2304    0.068     F
F       0.5501    0.212   0.8493     F
F       0.5647   0.3228   0.2468     F
Ag     0.56511  0.90371  0.25649    Ag
C       0.5803   0.0858   0.1602     C
Ag     0.58107  0.03437  0.60031    Ag
F       0.5947    0.625   0.7886     F
Ag     0.59591  0.90004  0.72715    Ag
C       0.5965   0.5609   0.4334     C
C       0.6028   0.0675   0.6987     C
O       0.6154   0.0869   0.4895     O
C       0.6161   0.1375   0.0969     C
F       0.6254   0.1226   0.3638     F
F       0.6275    0.497   0.4882     F
C       0.6318   0.1995   0.3974     C
O        0.636   0.8522   0.5743     O
O       0.6369   0.4482   0.7279     O
O       0.6377   0.9918   0.1721     O
F        0.643   0.0773    0.048     F
O       0.6461    0.731   0.2007     O
C       0.6475    0.134   0.6997     C
C       0.6487   0.7127   0.1461     C
C       0.6528   0.1588   0.4673     C
F       0.6539   0.9695   0.8749     F
F        0.662   0.8586   0.9575     F
O       0.6677   0.6403   0.3409     O
C       0.6779   0.7695   0.6114     C
O        0.684   0.7569   0.6708     O
C       0.6902   0.5593   0.3839     C
O       0.6923    0.216   0.4934     O
Ag     0.69515  0.19372  0.60157    Ag
F       0.7063    0.164   0.0999     F
F       0.7074   0.2397    0.366     F
F       0.7178   0.5817   0.6021     F
C       0.7188   0.8756    0.903     C
O       0.7259   0.6671   0.1095     O
Ag     0.73676  0.62092  0.00554    Ag
F       0.7371   0.6781   0.5164     F
C        0.746     0.67   0.5799     C
Ag     0.75074  0.21903  0.72844    Ag
C       0.7559   0.7811   0.8635     C
O       0.7646   0.6938   0.8928     O
O       0.7741   0.8081   0.8063     O
O       0.7764   0.4827   0.3896     O
Ag     0.79101  0.97325  0.74098    Ag
Ag     0.79331  0.47346  0.74302    Ag
F       0.7945   0.1162   0.2357     F
F       0.7984   0.9052    0.923     F
Ag     0.80187  0.66095  0.26477    Ag
Ag     0.81637  0.31569  0.45734    Ag
O       0.8248   0.2872   0.5688     O
F       0.8419   0.3219   0.0678     F
Ag     0.85145  0.67191  0.73796    Ag
F       0.8545   0.6376   0.5878     F
F       0.8662   0.9272   0.5457     F
O       0.8747   0.3028   0.6656     O
Ag     0.88073  0.52222  0.86057    Ag
C       0.8832   0.3078    0.606     C
O       0.8864   0.8225   0.6756     O
O       0.8932   0.4754   0.9694     O
F       0.9005   0.4327   0.0989     F
C       0.9042   0.0852   0.2284     C
Ag     0.90926  0.65626  0.13812    Ag
O       0.9171   0.9091   0.2597     O
Ag      0.9186   0.4329  0.30638    Ag
F        0.921    0.123   0.1674     F
F       0.9275   0.1531   0.2619     F
C       0.9282   0.3572   0.0584     C
O       0.9283   0.0467   0.7515     O
F       0.9291   0.0024   0.6067     F
F       0.9329   0.7481    0.435     F
C       0.9484   0.5021   0.7578     C
C       0.9494   0.9074    0.584     C
C       0.9581   0.3896   0.9893     C
O       0.9591   0.6715   0.0318     O
O       0.9593   0.2745   0.3769     O
F       0.9623   0.3973   0.5164     F
F       0.9639   0.0997   0.4573     F
C       0.9639   0.8072   0.6317     C
C       0.9708   0.5764   0.2339     C
C       0.9743    0.971   0.2509     C
C       0.9801   0.3398   0.5745     C
F       0.9826   0.6012   0.3922     F
Ag     0.99069  0.73702  0.24355    Ag
F       0.9959   0.7224   0.9089     F
