data_I
_chemical_name_common  '/home/zhangsd/repos/MofS-CGCNN/ML/data/WS24/clean_cifs/TUTZOX'
_cell_length_a 10.21800
_cell_length_b 22.10100
_cell_length_c 14.28300
_cell_angle_alpha 91.27600
_cell_angle_beta  90.00000
_cell_angle_gamma 90.00000
_space_group_name_H-M_alt      'P 1'


loop_
_space_group_symop_operation_xyz
  'x, y, z' 

loop_
_atom_site_label
_atom_site_fract_x
_atom_site_fract_y
_atom_site_fract_z
_atom_site_type_symbol
C       0.0051   0.4615   0.9247     C
H       0.0067   0.4353   0.8728     H
H       0.0081   0.8414   0.7154     H
H       0.0104   0.3171   0.2543     H
O       0.0107   0.6304   0.2819     O
C       0.0197   0.9869   0.4065     C
O       0.0199   0.8567   0.2056     O
C       0.0235   0.3317   0.9812     C
C       0.0236   0.5973   0.6929     C
O       0.0243   0.7849   0.3964     O
C       0.0326   0.9187   0.7947     C
C       0.0331   0.8356   0.4373     C
H        0.034   0.9784   0.3433     H
C       0.0367   0.0565   0.5384     C
H       0.0431    0.908    0.016     H
H       0.0441   0.5858   0.4697     H
O       0.0457   0.3041   0.9057     O
C       0.0493   0.4813   0.0837     C
C       0.0506   0.9719   0.1209     C
C       0.0524   0.5166   0.3752     C
C       0.0552   0.0426   0.4434     C
C       0.0556   0.4431   0.0064     C
La     0.05662   0.7418  0.23499    La
O       0.0654   0.7154   0.5848     O
C       0.0656   0.6597   0.7258     C
O       0.0672   0.6789   0.9663     O
C       0.0719   0.1177   0.5773     C
O       0.0755   0.8112   0.8941     O
C       0.0763    0.496    0.641     C
C        0.079   0.8576   0.1312     C
C         0.08   0.8604   0.7492     C
H       0.0812   0.4689   0.1412     H
C       0.0823   0.0157   0.8651     C
C       0.0859   0.6298   0.3509     C
H       0.0887   0.1147   0.6439     H
H        0.092   0.0713   0.4047     H
C       0.0936   0.9136    0.073     C
C       0.0956   0.5768    0.414     C
C       0.0979   0.0687   0.1909     C
C       0.1065   0.4158   0.3236     C
C       0.1141   0.5528   0.6749     C
C       0.1208   0.3809   0.0142     C
C       0.1219    0.962   0.8228     C
H       0.1243   0.6566   0.7788     H
O       0.1275   0.8468   0.4907     O
C       0.1325   0.8175   0.8181     C
C       0.1335   0.6913   0.6476     C
O       0.1342   0.8091   0.1007     O
C       0.1373   0.0153   0.1481     C
H       0.1392   0.4664   0.6293     H
C       0.1441   0.4721   0.3554     C
H       0.1447    0.044   0.8843     H
H       0.1461   0.3742   0.0786     H
H       0.1479   0.8696   0.7042     H
H       0.1521   0.1311   0.5478     H
O       0.1576   0.6752   0.3685     O
H       0.1606   0.0967   0.2104     H
H       0.1695   0.3861   0.3131     H
H       0.1847   0.9176   0.0552     H
H        0.186   0.5731   0.4337     H
H        0.199   0.3792   0.9757     H
H       0.2023   0.5607   0.6856     H
H       0.2107   0.9549   0.8132     H
H       0.2261   0.0087   0.1377     H
O       0.2325    0.786   0.7992     O
H       0.2326   0.4806   0.3637     H
O       0.2436   0.6932   0.1433     O
La     0.24886  0.75007  0.97873    La
La     0.25114  0.75007  0.47873    La
O       0.2564   0.6932   0.6433     O
H       0.2674   0.4806   0.8637     H
O       0.2675    0.786   0.2992     O
H       0.2739   0.0087   0.6377     H
H       0.2893   0.9549   0.3132     H
H       0.2977   0.5607   0.1856     H
H        0.301   0.3792   0.4757     H
H        0.314   0.5731   0.9337     H
H       0.3153   0.9176   0.5552     H
H       0.3305   0.3861   0.8131     H
H       0.3394   0.0967   0.7104     H
O       0.3424   0.6752   0.8685     O
H       0.3479   0.1311   0.0478     H
H       0.3521   0.8696   0.2042     H
H       0.3539   0.3742   0.5786     H
H       0.3553    0.044   0.3843     H
C       0.3559   0.4721   0.8554     C
H       0.3608   0.4664   0.1293     H
C       0.3627   0.0153   0.6481     C
O       0.3658   0.8091   0.6007     O
C       0.3665   0.6913   0.1476     C
C       0.3675   0.8175   0.3181     C
O       0.3725   0.8468   0.9907     O
H       0.3757   0.6566   0.2788     H
C       0.3781    0.962   0.3228     C
C       0.3792   0.3809   0.5142     C
C       0.3859   0.5528   0.1749     C
C       0.3935   0.4158   0.8236     C
C       0.4021   0.0687   0.6909     C
C       0.4044   0.5768    0.914     C
C       0.4064   0.9136    0.573     C
H        0.408   0.0713   0.9047     H
H       0.4113   0.1147   0.1439     H
C       0.4141   0.6298   0.8509     C
C       0.4177   0.0157   0.3651     C
H       0.4188   0.4689   0.6412     H
C         0.42   0.8604   0.2492     C
C        0.421   0.8576   0.6312     C
C       0.4237    0.496    0.141     C
O       0.4245   0.8112   0.3941     O
C       0.4281   0.1177   0.0773     C
O       0.4328   0.6789   0.4663     O
C       0.4344   0.6597   0.2258     C
O       0.4346   0.7154   0.0848     O
La     0.44338   0.7418  0.73499    La
C       0.4444   0.4431   0.5064     C
C       0.4448   0.0426   0.9434     C
C       0.4476   0.5166   0.8752     C
C       0.4494   0.9719   0.6209     C
C       0.4507   0.4813   0.5837     C
O       0.4543   0.3041   0.4057     O
H       0.4559   0.5858   0.9697     H
H       0.4569    0.908    0.516     H
C       0.4633   0.0565   0.0384     C
H        0.466   0.9784   0.8433     H
C       0.4669   0.8356   0.9373     C
C       0.4674   0.9187   0.2947     C
O       0.4757   0.7849   0.8964     O
C       0.4764   0.5973   0.1929     C
C       0.4765   0.3317   0.4812     C
O       0.4801   0.8567   0.7056     O
C       0.4803   0.9869   0.9065     C
O       0.4893   0.6304   0.7819     O
H       0.4896   0.3171   0.7543     H
H       0.4919   0.8414   0.2154     H
H       0.4933   0.4353   0.3728     H
C       0.4949   0.4615   0.4247     C
C       0.5051   0.5385   0.5753     C
H       0.5067   0.5647   0.6272     H
H       0.5081   0.1586   0.7846     H
H       0.5104   0.6829   0.2457     H
O       0.5107   0.3696   0.2181     O
C       0.5197   0.0131   0.0935     C
O       0.5199   0.1433   0.2944     O
C       0.5235   0.6683   0.5188     C
C       0.5236   0.4027   0.8071     C
O       0.5243   0.2151   0.1036     O
C       0.5326   0.0813   0.7053     C
C       0.5331   0.1644   0.0627     C
H        0.534   0.0216   0.1567     H
C       0.5367   0.9435   0.9616     C
H       0.5431    0.092    0.484     H
H       0.5441   0.4142   0.0303     H
O       0.5457   0.6959   0.5943     O
C       0.5493   0.5187   0.4163     C
C       0.5506   0.0281   0.3791     C
C       0.5524   0.4834   0.1248     C
C       0.5552   0.9574   0.0566     C
C       0.5556   0.5569   0.4936     C
La     0.55662   0.2582  0.26501    La
O       0.5654   0.2846   0.9152     O
C       0.5656   0.3403   0.7742     C
O       0.5672   0.3211   0.5337     O
C       0.5719   0.8823   0.9227     C
O       0.5755   0.1888   0.6059     O
C       0.5763    0.504    0.859     C
C        0.579   0.1424   0.3688     C
C         0.58   0.1396   0.7508     C
H       0.5812   0.5311   0.3588     H
C       0.5823   0.9843   0.6349     C
C       0.5859   0.3702   0.1491     C
H       0.5887   0.8853   0.8561     H
H        0.592   0.9287   0.0953     H
C       0.5936   0.0864    0.427     C
C       0.5956   0.4232    0.086     C
C       0.5979   0.9313   0.3091     C
C       0.6065   0.5842   0.1764     C
C       0.6141   0.4472   0.8251     C
C       0.6208   0.6191   0.4858     C
C       0.6219    0.038   0.6772     C
H       0.6243   0.3434   0.7212     H
O       0.6275   0.1532   0.0093     O
C       0.6325   0.1825   0.6819     C
C       0.6335   0.3087   0.8524     C
O       0.6342   0.1909   0.3993     O
C       0.6373   0.9847   0.3519     C
H       0.6392   0.5336   0.8707     H
C       0.6441   0.5279   0.1446     C
H       0.6447    0.956   0.6157     H
H       0.6461   0.6258   0.4214     H
H       0.6479   0.1304   0.7958     H
H       0.6521   0.8689   0.9522     H
O       0.6576   0.3248   0.1315     O
H       0.6606   0.9033   0.2896     H
H       0.6695   0.6139   0.1869     H
H       0.6847   0.0824   0.4448     H
H        0.686   0.4269   0.0663     H
H        0.699   0.6208   0.5243     H
H       0.7023   0.4393   0.8144     H
H       0.7107   0.0451   0.6868     H
H       0.7261   0.9913   0.3623     H
O       0.7325    0.214   0.7008     O
H       0.7326   0.5194   0.1363     H
O       0.7436   0.3068   0.3567     O
La     0.74886  0.24993  0.52127    La
La     0.75114  0.24993  0.02127    La
O       0.7564   0.3068   0.8567     O
H       0.7674   0.5194   0.6363     H
O       0.7675    0.214   0.2008     O
H       0.7739   0.9913   0.8623     H
H       0.7893   0.0451   0.1868     H
H       0.7977   0.4393   0.3144     H
H        0.801   0.6208   0.0243     H
H        0.814   0.4269   0.5663     H
H       0.8153   0.0824   0.9448     H
H       0.8305   0.6139   0.6869     H
H       0.8394   0.9033   0.7896     H
O       0.8424   0.3248   0.6315     O
H       0.8479   0.8689   0.4522     H
H       0.8521   0.1304   0.2958     H
H       0.8539   0.6258   0.9214     H
H       0.8553    0.956   0.1157     H
C       0.8559   0.5279   0.6446     C
H       0.8608   0.5336   0.3707     H
C       0.8627   0.9847   0.8519     C
O       0.8658   0.1909   0.8993     O
C       0.8665   0.3087   0.3524     C
C       0.8675   0.1825   0.1819     C
O       0.8725   0.1532   0.5093     O
H       0.8757   0.3434   0.2212     H
C       0.8781    0.038   0.1772     C
C       0.8792   0.6191   0.9858     C
C       0.8859   0.4472   0.3251     C
C       0.8935   0.5842   0.6764     C
C       0.9021   0.9313   0.8091     C
C       0.9044   0.4232    0.586     C
C       0.9064   0.0864    0.927     C
H        0.908   0.9287   0.5953     H
H       0.9113   0.8853   0.3561     H
C       0.9141   0.3702   0.6491     C
C       0.9177   0.9843   0.1349     C
H       0.9188   0.5311   0.8588     H
C         0.92   0.1396   0.2508     C
C        0.921   0.1424   0.8688     C
C       0.9237    0.504    0.359     C
O       0.9245   0.1888   0.1059     O
C       0.9281   0.8823   0.4227     C
O       0.9328   0.3211   0.0337     O
C       0.9344   0.3403   0.2742     C
O       0.9346   0.2846   0.4152     O
La     0.94338   0.2582  0.76501    La
C       0.9444   0.5569   0.9936     C
C       0.9448   0.9574   0.5566     C
C       0.9476   0.4834   0.6248     C
C       0.9494   0.0281   0.8791     C
C       0.9507   0.5187   0.9163     C
O       0.9543   0.6959   0.0943     O
H       0.9559   0.4142   0.5303     H
H       0.9569    0.092    0.984     H
C       0.9633   0.9435   0.4616     C
H        0.966   0.0216   0.6567     H
C       0.9669   0.1644   0.5627     C
C       0.9674   0.0813   0.2053     C
O       0.9757   0.2151   0.6036     O
C       0.9764   0.4027   0.3071     C
C       0.9765   0.6683   0.0188     C
O       0.9801   0.1433   0.7944     O
C       0.9803   0.0131   0.5935     C
O       0.9893   0.3696   0.7181     O
H       0.9896   0.6829   0.7457     H
H       0.9919   0.1586   0.2846     H
H       0.9933   0.5647   0.1272     H
C       0.9949   0.5385   0.0753     C
