data_I
_chemical_name_common  '/home/zhangsd/repos/MofS-CGCNN/ML/data/WS24/clean_cifs/TUTZUD'
_cell_length_a  9.97190
_cell_length_b 21.62000
_cell_length_c 14.04530
_cell_angle_alpha 91.58400
_cell_angle_beta  90.00000
_cell_angle_gamma 90.00000
_space_group_name_H-M_alt      'P 1'


loop_
_space_group_symop_operation_xyz
  'x, y, z' 

loop_
_atom_site_label
_atom_site_fract_x
_atom_site_fract_y
_atom_site_fract_z
_atom_site_type_symbol
C       0.0039   0.4589   0.9228     C
H       0.0069   0.4316   0.8704     H
O        0.014   0.8493   0.1982     O
C       0.0188   0.5973   0.6862     C
O       0.0188   0.6413   0.2848     O
H       0.0197   0.3131   0.2708     H
C       0.0209   0.9195   0.7921     C
H       0.0244   0.1609   0.2794     H
C        0.026   0.3281   0.9804     C
H       0.0264   0.9041   0.0086     H
C       0.0289   0.9877   0.4059     C
C       0.0314   0.0577   0.5414     C
H        0.033   0.5948   0.4687     H
O       0.0463   0.3089   0.8972     O
C       0.0469   0.9682   0.1161     C
O       0.0476   0.7828    0.384     O
C       0.0481   0.8333   0.4316     C
H       0.0499   0.9796   0.3423     H
C       0.0507    0.483   0.0862     C
C       0.0535   0.5215    0.376     C
C       0.0545   0.4408   0.0102     C
C       0.0574   0.8601   0.7401     C
C       0.0581   0.0445   0.4463     C
C       0.0597   0.6624    0.715     C
C       0.0599   0.1201   0.5864     C
O       0.0637   0.6896   0.9655     O
Er     0.06656  0.74146  0.22636    Er
C       0.0695   0.8507   0.1208     C
H       0.0702   0.1158   0.6545     H
O       0.0746   0.7141   0.5688     O
C       0.0783   0.4927    0.643     C
C       0.0829   0.9084   0.0647     C
C       0.0846   0.0165   0.8647     C
H       0.0857   0.4719   0.1446     H
C       0.0946   0.5839   0.4175     C
H       0.0965   0.0747   0.4092     H
C       0.0989   0.6358   0.3516     C
H       0.1066   0.8699   0.6829     H
O       0.1069   0.8077   0.8823     O
C       0.1105   0.0654   0.1875     C
C       0.1132   0.5518   0.6737     C
C       0.1135   0.4174   0.3315     C
H       0.1142   0.6616   0.7721     H
C       0.1183   0.9616   0.8199     C
C       0.1188   0.3776   0.0204     C
O       0.1199   0.8009   0.0858     O
O       0.1333   0.8421   0.4935     O
H       0.1366   0.3704    0.087     H
C       0.1369   0.6916   0.6375     C
C       0.1408   0.8166    0.798     C
C       0.1433   0.0106   0.1407     C
H        0.144   0.4625   0.6351     H
H       0.1441   0.1354   0.5617     H
C       0.1494   0.4758   0.3619     C
H       0.1522   0.0441   0.8827     H
H       0.1749   0.9114   0.0429     H
H       0.1784   0.0928   0.2058     H
H       0.1792   0.3872   0.3228     H
H       0.1829   0.5797   0.4456     H
O       0.1844   0.6781   0.3645     O
H       0.2028   0.5609    0.686     H
H       0.2035   0.3762   0.9863     H
H        0.208   0.9526    0.808     H
H       0.2325   0.0024   0.1256     H
O       0.2338   0.7897   0.7602     O
O       0.2364   0.6902   0.1349     O
H       0.2393   0.4849   0.3732     H
Er     0.24572  0.75006  0.97417    Er
Er     0.25428  0.75006  0.47417    Er
H       0.2607   0.4849   0.8732     H
O       0.2636   0.6902   0.6349     O
O       0.2662   0.7897   0.2602     O
H       0.2675   0.0024   0.6256     H
H        0.292   0.9526    0.308     H
H       0.2965   0.3762   0.4863     H
H       0.2972   0.5609    0.186     H
O       0.3156   0.6781   0.8645     O
H       0.3171   0.5797   0.9456     H
H       0.3208   0.3872   0.8228     H
H       0.3216   0.0928   0.7058     H
H       0.3251   0.9114   0.5429     H
H       0.3478   0.0441   0.3827     H
C       0.3506   0.4758   0.8619     C
H       0.3559   0.1354   0.0617     H
H        0.356   0.4625   0.1351     H
C       0.3567   0.0106   0.6407     C
C       0.3592   0.8166    0.298     C
C       0.3631   0.6916   0.1375     C
H       0.3634   0.3704    0.587     H
O       0.3667   0.8421   0.9935     O
O       0.3801   0.8009   0.5858     O
C       0.3812   0.3776   0.5204     C
C       0.3817   0.9616   0.3199     C
H       0.3858   0.6616   0.2721     H
C       0.3865   0.4174   0.8315     C
C       0.3868   0.5518   0.1737     C
C       0.3895   0.0654   0.6875     C
O       0.3931   0.8077   0.3823     O
H       0.3934   0.8699   0.1829     H
C       0.4011   0.6358   0.8516     C
H       0.4035   0.0747   0.9092     H
C       0.4054   0.5839   0.9175     C
H       0.4143   0.4719   0.6446     H
C       0.4154   0.0165   0.3647     C
C       0.4171   0.9084   0.5647     C
C       0.4217   0.4927    0.143     C
O       0.4254   0.7141   0.0688     O
H       0.4298   0.1158   0.1545     H
C       0.4305   0.8507   0.6208     C
Er     0.43344  0.74146  0.72636    Er
O       0.4363   0.6896   0.4655     O
C       0.4401   0.1201   0.0864     C
C       0.4403   0.6624    0.215     C
C       0.4419   0.0445   0.9463     C
C       0.4426   0.8601   0.2401     C
C       0.4455   0.4408   0.5102     C
C       0.4465   0.5215    0.876     C
C       0.4493    0.483   0.5862     C
H       0.4501   0.9796   0.8423     H
C       0.4519   0.8333   0.9316     C
O       0.4524   0.7828    0.884     O
C       0.4531   0.9682   0.6161     C
O       0.4537   0.3089   0.3972     O
H        0.467   0.5948   0.9687     H
C       0.4686   0.0577   0.0414     C
C       0.4711   0.9877   0.9059     C
H       0.4736   0.9041   0.5086     H
C        0.474   0.3281   0.4804     C
H       0.4756   0.1609   0.7794     H
C       0.4791   0.9195   0.2921     C
H       0.4803   0.3131   0.7708     H
C       0.4812   0.5973   0.1862     C
O       0.4812   0.6413   0.7848     O
O        0.486   0.8493   0.6982     O
H       0.4931   0.4316   0.3704     H
C       0.4961   0.4589   0.4228     C
C       0.5039   0.5411   0.5772     C
H       0.5069   0.5684   0.6296     H
O        0.514   0.1507   0.3018     O
O       0.5188   0.3587   0.2152     O
C       0.5188   0.4027   0.8138     C
H       0.5197   0.6869   0.2292     H
C       0.5209   0.0805   0.7079     C
H       0.5244   0.8391   0.2206     H
C        0.526   0.6719   0.5196     C
H       0.5264   0.0959   0.4914     H
C       0.5289   0.0123   0.0941     C
C       0.5314   0.9423   0.9586     C
H        0.533   0.4052   0.0313     H
O       0.5463   0.6911   0.6028     O
C       0.5469   0.0318   0.3839     C
O       0.5476   0.2172    0.116     O
C       0.5481   0.1667   0.0684     C
H       0.5499   0.0204   0.1577     H
C       0.5507    0.517   0.4138     C
C       0.5535   0.4785    0.124     C
C       0.5545   0.5592   0.4898     C
C       0.5574   0.1399   0.7599     C
C       0.5581   0.9555   0.0537     C
C       0.5597   0.3376    0.785     C
C       0.5599   0.8799   0.9136     C
O       0.5637   0.3104   0.5345     O
Er     0.56656  0.25854  0.27364    Er
C       0.5695   0.1493   0.3792     C
H       0.5702   0.8842   0.8455     H
O       0.5746   0.2859   0.9312     O
C       0.5783   0.5073    0.857     C
C       0.5829   0.0916   0.4353     C
C       0.5846   0.9835   0.6353     C
H       0.5857   0.5281   0.3554     H
C       0.5946   0.4161   0.0825     C
H       0.5965   0.9253   0.0908     H
C       0.5989   0.3642   0.1484     C
H       0.6066   0.1301   0.8171     H
O       0.6069   0.1923   0.6177     O
C       0.6105   0.9346   0.3125     C
C       0.6132   0.4482   0.8263     C
C       0.6135   0.5826   0.1685     C
H       0.6142   0.3384   0.7279     H
C       0.6183   0.0384   0.6801     C
C       0.6188   0.6224   0.4796     C
O       0.6199   0.1991   0.4142     O
O       0.6333   0.1579   0.0065     O
H       0.6366   0.6296    0.413     H
C       0.6369   0.3084   0.8625     C
C       0.6408   0.1834    0.702     C
C       0.6433   0.9894   0.3593     C
H        0.644   0.5375   0.8649     H
H       0.6441   0.8646   0.9383     H
C       0.6494   0.5242   0.1381     C
H       0.6522   0.9559   0.6173     H
H       0.6749   0.0886   0.4571     H
H       0.6784   0.9072   0.2942     H
H       0.6792   0.6128   0.1772     H
H       0.6829   0.4203   0.0544     H
O       0.6844   0.3219   0.1355     O
H       0.7028   0.4391    0.814     H
H       0.7035   0.6238   0.5137     H
H        0.708   0.0474    0.692     H
H       0.7325   0.9976   0.3744     H
O       0.7338   0.2103   0.7398     O
O       0.7364   0.3098   0.3651     O
H       0.7393   0.5151   0.1268     H
Er     0.74572  0.24994  0.52583    Er
Er     0.75428  0.24994  0.02583    Er
H       0.7607   0.5151   0.6268     H
O       0.7636   0.3098   0.8651     O
O       0.7662   0.2103   0.2398     O
H       0.7675   0.9976   0.8744     H
H        0.792   0.0474    0.192     H
H       0.7965   0.6238   0.0137     H
H       0.7972   0.4391    0.314     H
O       0.8156   0.3219   0.6355     O
H       0.8171   0.4203   0.5544     H
H       0.8208   0.6128   0.6772     H
H       0.8216   0.9072   0.7942     H
H       0.8251   0.0886   0.9571     H
H       0.8478   0.9559   0.1173     H
C       0.8506   0.5242   0.6381     C
H       0.8559   0.8646   0.4383     H
H        0.856   0.5375   0.3649     H
C       0.8567   0.9894   0.8593     C
C       0.8592   0.1834    0.202     C
C       0.8631   0.3084   0.3625     C
H       0.8634   0.6296    0.913     H
O       0.8667   0.1579   0.5065     O
O       0.8801   0.1991   0.9142     O
C       0.8812   0.6224   0.9796     C
C       0.8817   0.0384   0.1801     C
H       0.8858   0.3384   0.2279     H
C       0.8865   0.5826   0.6685     C
C       0.8868   0.4482   0.3263     C
C       0.8895   0.9346   0.8125     C
O       0.8931   0.1923   0.1177     O
H       0.8934   0.1301   0.3171     H
C       0.9011   0.3642   0.6484     C
H       0.9035   0.9253   0.5908     H
C       0.9054   0.4161   0.5825     C
H       0.9143   0.5281   0.8554     H
C       0.9154   0.9835   0.1353     C
C       0.9171   0.0916   0.9353     C
C       0.9217   0.5073    0.357     C
O       0.9254   0.2859   0.4312     O
H       0.9298   0.8842   0.3455     H
C       0.9305   0.1493   0.8792     C
Er     0.93344  0.25854  0.77364    Er
O       0.9363   0.3104   0.0345     O
C       0.9401   0.8799   0.4136     C
C       0.9403   0.3376    0.285     C
C       0.9419   0.9555   0.5537     C
C       0.9426   0.1399   0.2599     C
C       0.9455   0.5592   0.9898     C
C       0.9465   0.4785    0.624     C
C       0.9493    0.517   0.9138     C
H       0.9501   0.0204   0.6577     H
C       0.9519   0.1667   0.5684     C
O       0.9524   0.2172    0.616     O
C       0.9531   0.0318   0.8839     C
O       0.9537   0.6911   0.1028     O
H        0.967   0.4052   0.5313     H
C       0.9686   0.9423   0.4586     C
C       0.9711   0.0123   0.5941     C
H       0.9736   0.0959   0.9914     H
C        0.974   0.6719   0.0196     C
H       0.9756   0.8391   0.7206     H
C       0.9791   0.0805   0.2079     C
H       0.9803   0.6869   0.7292     H
O       0.9812   0.3587   0.7152     O
C       0.9812   0.4027   0.3138     C
O        0.986   0.1507   0.8018     O
H       0.9931   0.5684   0.1296     H
C       0.9961   0.5411   0.0772     C
