data_I
_chemical_name_common  '/home/zhangsd/repos/MofS-CGCNN/ML/data/WS24/clean_cifs/UDEMEW'
_cell_length_a 51.55210
_cell_length_b 51.55210
_cell_length_c 51.55210
_cell_angle_alpha 60.00000
_cell_angle_beta  60.00000
_cell_angle_gamma 60.00000
_space_group_name_H-M_alt      'P 1'


loop_
_space_group_symop_operation_xyz
  'x, y, z' 

loop_
_atom_site_label
_atom_site_fract_x
_atom_site_fract_y
_atom_site_fract_z
_atom_site_type_symbol
O      0.00097    0.103  0.30193     O
O      0.00097    0.103   0.5941     O
O      0.00097  0.30193    0.103     O
O      0.00097  0.30193   0.5941     O
O      0.00097   0.5941    0.103     O
O      0.00097   0.5941  0.30193     O
C      0.00208  0.46751  0.61864     C
C      0.00208  0.46751  0.91177     C
C      0.00208  0.61864  0.46751     C
C      0.00208  0.61864  0.91177     C
C      0.00208  0.91177  0.46751     C
C      0.00208  0.91177  0.61864     C
O      0.00357  0.04674  0.44698     O
O      0.00357  0.04674  0.50271     O
O      0.00357  0.44698  0.04674     O
O      0.00357  0.44698  0.50271     O
O      0.00357  0.50271  0.04674     O
O      0.00357  0.50271  0.44698     O
C      0.00575  0.44553  0.64847     C
C      0.00575  0.44553  0.90025     C
C      0.00575  0.64847  0.44553     C
C      0.00575  0.64847  0.90025     C
C      0.00575  0.90025  0.44553     C
C      0.00575  0.90025  0.64847     C
C      0.00846  0.32277  0.70729     C
C      0.00846  0.32277  0.96148     C
C      0.00846  0.70729  0.32277     C
C      0.00846  0.70729  0.96148     C
C      0.00846  0.96148  0.32277     C
C      0.00846  0.96148  0.70729     C
C      0.01402  0.01402  0.29291     C
C      0.01402  0.01402  0.67905     C
C      0.01402  0.29291  0.01402     C
C      0.01402  0.29291  0.67905     C
C      0.01402  0.67905  0.01402     C
C      0.01402  0.67905  0.29291     C
C      0.01749  0.06475  0.37864     C
C      0.01749  0.06475  0.53912     C
C      0.01749  0.37864  0.06475     C
C      0.01749  0.37864  0.53912     C
C      0.01749  0.53912  0.06475     C
C      0.01749  0.53912  0.37864     C
H      0.01907  0.33162  0.71339     H
H      0.01907  0.33162  0.93592     H
H      0.01907  0.71339  0.33162     H
H      0.01907  0.71339  0.93592     H
H      0.01907  0.93592  0.33162     H
H      0.01907  0.93592  0.71339     H
C      0.01976  0.48396  0.55833     C
C      0.01976  0.48396  0.93795     C
C      0.01976  0.55833  0.48396     C
C      0.01976  0.55833  0.93795     C
C      0.01976  0.93795  0.48396     C
C      0.01976  0.93795  0.55833     C
C      0.02258  0.07125  0.34622     C
C      0.02258  0.07125  0.55995     C
C      0.02258  0.34622  0.07125     C
C      0.02258  0.34622  0.55995     C
C      0.02258  0.55995  0.07125     C
C      0.02258  0.55995  0.34622     C
C      0.02608   0.4635  0.58959     C
C      0.02608   0.4635  0.92083     C
C      0.02608  0.58959   0.4635     C
C      0.02608  0.58959  0.92083     C
C      0.02608  0.92083   0.4635     C
C      0.02608  0.92083  0.58959     C
C       0.0286   0.3024  0.68853     C
C       0.0286   0.3024  0.98047     C
C       0.0286  0.68853   0.3024     C
C       0.0286  0.68853  0.98047     C
C       0.0286  0.98047   0.3024     C
C       0.0286  0.98047  0.68853     C
C      0.02914  0.02914  0.43201     C
C      0.02914  0.02914  0.50971     C
C      0.02914  0.43201  0.02914     C
C      0.02914  0.43201  0.50971     C
C      0.02914  0.50971  0.02914     C
C      0.02914  0.50971  0.43201     C
C      0.03414  0.41993  0.64899     C
C      0.03414  0.41993  0.89694     C
C      0.03414  0.64899  0.41993     C
C      0.03414  0.64899  0.89694     C
C      0.03414  0.89694  0.41993     C
C      0.03414  0.89694  0.64899     C
H      0.03685  0.40263  0.67161     H
H      0.03685  0.40263  0.88891     H
H      0.03685  0.67161  0.40263     H
H      0.03685  0.67161  0.88891     H
H      0.03685  0.88891  0.40263     H
H      0.03685  0.88891  0.67161     H
C      0.03797  0.03797  0.39566     C
C      0.03797  0.03797   0.5284     C
C      0.03797  0.39566  0.03797     C
C      0.03797  0.39566   0.5284     C
C      0.03797   0.5284  0.03797     C
C      0.03797   0.5284  0.39566     C
O      0.04073  0.47833  0.53276     O
O      0.04073  0.47833  0.94818     O
O      0.04073  0.53276  0.47833     O
O      0.04073  0.53276  0.94818     O
O      0.04073  0.94818  0.47833     O
O      0.04073  0.94818  0.53276     O
Cr     0.04143   0.4908   0.4908    Cr
Cr     0.04143   0.4908  0.97696    Cr
Cr     0.04143  0.97696   0.4908    Cr
O      0.04674  0.00357  0.44698     O
O      0.04674  0.00357  0.50271     O
O      0.04674  0.44698  0.00357     O
O      0.04674  0.44698  0.50271     O
O      0.04674  0.50271  0.00357     O
O      0.04674  0.50271  0.44698     O
C      0.04951  0.04951  0.33087     C
C      0.04951  0.04951  0.57011     C
C      0.04951  0.33087  0.04951     C
C      0.04951  0.33087  0.57011     C
C      0.04951  0.57011  0.04951     C
C      0.04951  0.57011  0.33087     C
C      0.05401  0.43684   0.5913     C
C      0.05401  0.43684  0.91785     C
C      0.05401   0.5913  0.43684     C
C      0.05401   0.5913  0.91785     C
C      0.05401  0.91785  0.43684     C
C      0.05401  0.91785   0.5913     C
C      0.05793  0.41466  0.62094     C
C      0.05793  0.41466  0.90647     C
C      0.05793  0.62094  0.41466     C
C      0.05793  0.62094  0.90647     C
C      0.05793  0.90647  0.41466     C
C      0.05793  0.90647  0.62094     C
C      0.06422   0.2964  0.67466     C
C      0.06422   0.2964  0.96472     C
C      0.06422  0.67466   0.2964     C
C      0.06422  0.67466  0.96472     C
C      0.06422  0.96472   0.2964     C
C      0.06422  0.96472  0.67466     C
C      0.06475  0.01749  0.37864     C
C      0.06475  0.01749  0.53912     C
C      0.06475  0.37864  0.01749     C
C      0.06475  0.37864  0.53912     C
C      0.06475  0.53912  0.01749     C
C      0.06475  0.53912  0.37864     C
C      0.07125  0.02258  0.34622     C
C      0.07125  0.02258  0.55995     C
C      0.07125  0.34622  0.02258     C
C      0.07125  0.34622  0.55995     C
C      0.07125  0.55995  0.02258     C
C      0.07125  0.55995  0.34622     C
H      0.07194  0.43234  0.56957     H
H      0.07194  0.43234  0.92615     H
H      0.07194  0.56957  0.43234     H
H      0.07194  0.56957  0.92615     H
H      0.07194  0.92615  0.43234     H
H      0.07194  0.92615  0.56957     H
O      0.07436  0.30913  0.68168     O
O      0.07436  0.30913  0.93483     O
O      0.07436  0.68168  0.30913     O
O      0.07436  0.68168  0.93483     O
O      0.07436  0.93483  0.30913     O
O      0.07436  0.93483  0.68168     O
H      0.08004  0.39126  0.53221     H
H      0.08004  0.39126  0.99649     H
H      0.08004  0.53221  0.39126     H
H      0.08004  0.53221  0.99649     H
H      0.08004  0.99649  0.39126     H
H      0.08004  0.99649  0.53221     H
O      0.08273  0.28084  0.65527     O
O      0.08273  0.28084  0.98116     O
O      0.08273  0.65527  0.28084     O
O      0.08273  0.65527  0.98116     O
O      0.08273  0.98116  0.28084     O
O      0.08273  0.98116  0.65527     O
C       0.0846  0.38386  0.62301     C
C       0.0846  0.38386  0.90853     C
C       0.0846  0.62301  0.38386     C
C       0.0846  0.62301  0.90853     C
C       0.0846  0.90853  0.38386     C
C       0.0846  0.90853  0.62301     C
O      0.08466  0.36248  0.65013     O
O      0.08466  0.36248  0.90273     O
O      0.08466  0.65013  0.36248     O
O      0.08466  0.65013  0.90273     O
O      0.08466  0.90273  0.36248     O
O      0.08466  0.90273  0.65013     O
C      0.09781  0.33057  0.57443     C
C      0.09781  0.33057  0.99719     C
C      0.09781  0.57443  0.33057     C
C      0.09781  0.57443  0.99719     C
C      0.09781  0.99719  0.33057     C
C      0.09781  0.99719  0.57443     C
O        0.103  0.00097  0.30193     O
O        0.103  0.00097   0.5941     O
O        0.103  0.30193  0.00097     O
O        0.103  0.30193   0.5941     O
O        0.103   0.5941  0.00097     O
O        0.103   0.5941  0.30193     O
O      0.10559  0.37976  0.59725     O
O      0.10559  0.37976   0.9174     O
O      0.10559  0.59725  0.37976     O
O      0.10559  0.59725   0.9174     O
O      0.10559   0.9174  0.37976     O
O      0.10559   0.9174  0.59725     O
Cr     0.11072  0.32011  0.66469    Cr
Cr     0.11072  0.32011  0.90448    Cr
Cr     0.11072  0.66469  0.32011    Cr
Cr     0.11072  0.66469  0.90448    Cr
Cr     0.11072  0.90448  0.32011    Cr
Cr     0.11072  0.90448  0.66469    Cr
O      0.11342  0.34748  0.56742     O
O      0.11342  0.34748  0.97168     O
O      0.11342  0.56742  0.34748     O
O      0.11342  0.56742  0.97168     O
O      0.11342  0.97168  0.34748     O
O      0.11342  0.97168  0.56742     O
Cr       0.125  0.27693    0.625    Cr
Cr       0.125  0.27693  0.97307    Cr
O        0.125  0.31421    0.625     O
O        0.125  0.31421  0.93579     O
Cr       0.125    0.625  0.27693    Cr
O        0.125    0.625  0.31421     O
O        0.125    0.625  0.93579     O
Cr       0.125    0.625  0.97307    Cr
O        0.125  0.93579  0.31421     O
O        0.125  0.93579    0.625     O
Cr       0.125  0.97307  0.27693    Cr
Cr       0.125  0.97307    0.625    Cr
O      0.13658  0.27832  0.68258     O
O      0.13658  0.27832  0.90252     O
O      0.13658  0.68258  0.27832     O
O      0.13658  0.68258  0.90252     O
O      0.13658  0.90252  0.27832     O
O      0.13658  0.90252  0.68258     O
Cr     0.13928  0.34552  0.58531    Cr
Cr     0.13928  0.34552  0.92989    Cr
Cr     0.13928  0.58531  0.34552    Cr
Cr     0.13928  0.58531  0.92989    Cr
Cr     0.13928  0.92989  0.34552    Cr
Cr     0.13928  0.92989  0.58531    Cr
O      0.14441   0.3326  0.65275     O
O      0.14441   0.3326  0.87024     O
O      0.14441  0.65275   0.3326     O
O      0.14441  0.65275  0.87024     O
O      0.14441  0.87024   0.3326     O
O      0.14441  0.87024  0.65275     O
O        0.147  0.24903   0.6559     O
O        0.147  0.24903  0.94807     O
O        0.147   0.6559  0.24903     O
O        0.147   0.6559  0.94807     O
O        0.147  0.94807  0.24903     O
O        0.147  0.94807   0.6559     O
C      0.15219  0.25281  0.67557     C
C      0.15219  0.25281  0.91943     C
C      0.15219  0.67557  0.25281     C
C      0.15219  0.67557  0.91943     C
C      0.15219  0.91943  0.25281     C
C      0.15219  0.91943  0.67557     C
O      0.16534  0.34727  0.59987     O
O      0.16534  0.34727  0.88752     O
O      0.16534  0.59987  0.34727     O
O      0.16534  0.59987  0.88752     O
O      0.16534  0.88752  0.34727     O
O      0.16534  0.88752  0.59987     O
C       0.1654  0.34147  0.62699     C
C       0.1654  0.34147  0.86614     C
C       0.1654  0.62699  0.34147     C
C       0.1654  0.62699  0.86614     C
C       0.1654  0.86614  0.34147     C
C       0.1654  0.86614  0.62699     C
O      0.16727  0.26884  0.59473     O
O      0.16727  0.26884  0.96916     O
O      0.16727  0.59473  0.26884     O
O      0.16727  0.59473  0.96916     O
O      0.16727  0.96916  0.26884     O
O      0.16727  0.96916  0.59473     O
H      0.16996  0.25351  0.71779     H
H      0.16996  0.25351  0.85874     H
H      0.16996  0.71779  0.25351     H
H      0.16996  0.71779  0.85874     H
H      0.16996  0.85874  0.25351     H
H      0.16996  0.85874  0.71779     H
O      0.17564  0.31517  0.56832     O
O      0.17564  0.31517  0.94087     O
O      0.17564  0.56832  0.31517     O
O      0.17564  0.56832  0.94087     O
O      0.17564  0.94087  0.31517     O
O      0.17564  0.94087  0.56832     O
H      0.17806  0.32385  0.68043     H
H      0.17806  0.32385  0.81766     H
H      0.17806  0.68043  0.32385     H
H      0.17806  0.68043  0.81766     H
H      0.17806  0.81766  0.32385     H
H      0.17806  0.81766  0.68043     H
C      0.17875  0.22742  0.69005     C
C      0.17875  0.22742  0.90378     C
C      0.17875  0.69005  0.22742     C
C      0.17875  0.69005  0.90378     C
C      0.17875  0.90378  0.22742     C
C      0.17875  0.90378  0.69005     C
C      0.18525  0.23251  0.71088     C
C      0.18525  0.23251  0.87136     C
C      0.18525  0.71088  0.23251     C
C      0.18525  0.71088  0.87136     C
C      0.18525  0.87136  0.23251     C
C      0.18525  0.87136  0.71088     C
C      0.18578  0.28528  0.57534     C
C      0.18578  0.28528   0.9536     C
C      0.18578  0.57534  0.28528     C
C      0.18578  0.57534   0.9536     C
C      0.18578   0.9536  0.28528     C
C      0.18578   0.9536  0.57534     C
C      0.19207  0.34353  0.62906     C
C      0.19207  0.34353  0.83534     C
C      0.19207  0.62906  0.34353     C
C      0.19207  0.62906  0.83534     C
C      0.19207  0.83534  0.34353     C
C      0.19207  0.83534  0.62906     C
C      0.19599  0.33215   0.6587     C
C      0.19599  0.33215  0.81316     C
C      0.19599   0.6587  0.33215     C
C      0.19599   0.6587  0.81316     C
C      0.19599  0.81316  0.33215     C
C      0.19599  0.81316   0.6587     C
C      0.20049  0.20049  0.67989     C
C      0.20049  0.20049  0.91913     C
C      0.20049  0.67989  0.20049     C
C      0.20049  0.67989  0.91913     C
C      0.20049  0.91913  0.20049     C
C      0.20049  0.91913  0.67989     C
O      0.20326  0.24643  0.74729     O
O      0.20326  0.24643  0.80302     O
O      0.20326  0.74729  0.24643     O
O      0.20326  0.74729  0.80302     O
O      0.20326  0.80302  0.24643     O
O      0.20326  0.80302  0.74729     O
Cr     0.20857  0.27304   0.7592    Cr
Cr     0.20857   0.7592  0.27304    Cr
Cr     0.20857   0.7592   0.7592    Cr
O      0.20927  0.30182  0.71724     O
O      0.20927  0.30182  0.77167     O
O      0.20927  0.71724  0.30182     O
O      0.20927  0.71724  0.77167     O
O      0.20927  0.77167  0.30182     O
O      0.20927  0.77167  0.71724     O
C      0.21203  0.21203   0.7216     C
C      0.21203  0.21203  0.85434     C
C      0.21203   0.7216  0.21203     C
C      0.21203   0.7216  0.85434     C
C      0.21203  0.85434  0.21203     C
C      0.21203  0.85434   0.7216     C
H      0.21315  0.36109  0.57839     H
H      0.21315  0.36109  0.84737     H
H      0.21315  0.57839  0.36109     H
H      0.21315  0.57839  0.84737     H
H      0.21315  0.84737  0.36109     H
H      0.21315  0.84737  0.57839     H
C      0.21586  0.35306  0.60101     C
C      0.21586  0.35306  0.83007     C
C      0.21586  0.60101  0.35306     C
C      0.21586  0.60101  0.83007     C
C      0.21586  0.83007  0.35306     C
C      0.21586  0.83007  0.60101     C
C      0.22086  0.22086  0.74029     C
C      0.22086  0.22086  0.81799     C
C      0.22086  0.74029  0.22086     C
C      0.22086  0.74029  0.81799     C
C      0.22086  0.81799  0.22086     C
C      0.22086  0.81799  0.74029     C
C       0.2214  0.26953  0.56147     C
C       0.2214  0.26953   0.9476     C
C       0.2214  0.56147  0.26953     C
C       0.2214  0.56147   0.9476     C
C       0.2214   0.9476  0.26953     C
C       0.2214   0.9476  0.56147     C
C      0.22392  0.32917  0.66041     C
C      0.22392  0.32917   0.7865     C
C      0.22392  0.66041  0.32917     C
C      0.22392  0.66041   0.7865     C
C      0.22392   0.7865  0.32917     C
C      0.22392   0.7865  0.66041     C
C      0.22742  0.17875  0.69005     C
C      0.22742  0.17875  0.90378     C
C      0.22742  0.69005  0.17875     C
C      0.22742  0.69005  0.90378     C
C      0.22742  0.90378  0.17875     C
C      0.22742  0.90378  0.69005     C
C      0.23024  0.31205  0.69167     C
C      0.23024  0.31205  0.76604     C
C      0.23024  0.69167  0.31205     C
C      0.23024  0.69167  0.76604     C
C      0.23024  0.76604  0.31205     C
C      0.23024  0.76604  0.69167     C
H      0.23093  0.31408  0.53661     H
H      0.23093  0.31408  0.91838     H
H      0.23093  0.53661  0.31408     H
H      0.23093  0.53661  0.91838     H
H      0.23093  0.91838  0.31408     H
H      0.23093  0.91838  0.53661     H
C      0.23251  0.18525  0.71088     C
C      0.23251  0.18525  0.87136     C
C      0.23251  0.71088  0.18525     C
C      0.23251  0.71088  0.87136     C
C      0.23251  0.87136  0.18525     C
C      0.23251  0.87136  0.71088     C
C      0.23598  0.23598  0.57095     C
C      0.23598  0.23598  0.95709     C
C      0.23598  0.57095  0.23598     C
C      0.23598  0.57095  0.95709     C
C      0.23598  0.95709  0.23598     C
C      0.23598  0.95709  0.57095     C
C      0.24154  0.28852  0.54271     C
C      0.24154  0.28852  0.92723     C
C      0.24154  0.54271  0.28852     C
C      0.24154  0.54271  0.92723     C
C      0.24154  0.92723  0.28852     C
C      0.24154  0.92723  0.54271     C
C      0.24425  0.34975  0.60153     C
C      0.24425  0.34975  0.80447     C
C      0.24425  0.60153  0.34975     C
C      0.24425  0.60153  0.80447     C
C      0.24425  0.80447  0.34975     C
C      0.24425  0.80447  0.60153     C
O      0.24643  0.20326  0.74729     O
O      0.24643  0.20326  0.80302     O
O      0.24643  0.74729  0.20326     O
O      0.24643  0.74729  0.80302     O
O      0.24643  0.80302  0.20326     O
O      0.24643  0.80302  0.74729     O
C      0.24792  0.33823  0.63136     C
C      0.24792  0.33823  0.78249     C
C      0.24792  0.63136  0.33823     C
C      0.24792  0.63136  0.78249     C
C      0.24792  0.78249  0.33823     C
C      0.24792  0.78249  0.63136     C
O      0.24903    0.147   0.6559     O
O      0.24903    0.147  0.94807     O
O      0.24903   0.6559    0.147     O
O      0.24903   0.6559  0.94807     O
O      0.24903  0.94807    0.147     O
O      0.24903  0.94807   0.6559     O
C      0.25281  0.15219  0.67557     C
C      0.25281  0.15219  0.91943     C
C      0.25281  0.67557  0.15219     C
C      0.25281  0.67557  0.91943     C
C      0.25281  0.91943  0.15219     C
C      0.25281  0.91943  0.67557     C
H      0.25351  0.16996  0.71779     H
H      0.25351  0.16996  0.85874     H
H      0.25351  0.71779  0.16996     H
H      0.25351  0.71779  0.85874     H
H      0.25351  0.85874  0.16996     H
H      0.25351  0.85874  0.71779     H
O      0.25408  0.25408  0.74592     O
O      0.25408  0.74592  0.25408     O
O      0.25408  0.74592  0.74592     O
O      0.25729  0.30692  0.69111     O
O      0.25729  0.30692  0.74468     O
O      0.25729  0.69111  0.30692     O
O      0.25729  0.69111  0.74468     O
O      0.25729  0.74468  0.30692     O
O      0.25729  0.74468  0.69111     O
O      0.26799   0.3595  0.54547     O
O      0.26799   0.3595  0.82704     O
O      0.26799  0.54547   0.3595     O
O      0.26799  0.54547  0.82704     O
O      0.26799  0.82704   0.3595     O
O      0.26799  0.82704  0.54547     O
O      0.26884  0.16727  0.59473     O
O      0.26884  0.16727  0.96916     O
O      0.26884  0.59473  0.16727     O
O      0.26884  0.59473  0.96916     O
O      0.26884  0.96916  0.16727     O
O      0.26884  0.96916  0.59473     O
C      0.26953   0.2214  0.56147     C
C      0.26953   0.2214   0.9476     C
C      0.26953  0.56147   0.2214     C
C      0.26953  0.56147   0.9476     C
C      0.26953   0.9476   0.2214     C
C      0.26953   0.9476  0.56147     C
H      0.27027  0.33456  0.63189     H
H      0.27027  0.33456  0.76328     H
H      0.27027  0.63189  0.33456     H
H      0.27027  0.63189  0.76328     H
H      0.27027  0.76328  0.33456     H
H      0.27027  0.76328  0.63189     H
C      0.27156  0.35305  0.57109     C
C      0.27156  0.35305   0.8043     C
C      0.27156  0.57109  0.35305     C
C      0.27156  0.57109   0.8043     C
C      0.27156   0.8043  0.35305     C
C      0.27156   0.8043  0.57109     C
Cr     0.27304  0.20857   0.7592    Cr
Cr     0.27304   0.7592  0.20857    Cr
Cr     0.27304   0.7592   0.7592    Cr
C      0.27511  0.27511  0.53361     C
C      0.27511  0.27511  0.91617     C
C      0.27511  0.53361  0.27511     C
C      0.27511  0.53361  0.91617     C
C      0.27511  0.91617  0.27511     C
C      0.27511  0.91617  0.53361     C
Cr     0.27693    0.125    0.625    Cr
Cr     0.27693    0.125  0.97307    Cr
Cr     0.27693    0.625    0.125    Cr
Cr     0.27693    0.625  0.97307    Cr
Cr     0.27693  0.97307    0.125    Cr
Cr     0.27693  0.97307    0.625    Cr
O      0.27832  0.13658  0.68258     O
O      0.27832  0.13658  0.90252     O
O      0.27832  0.68258  0.13658     O
O      0.27832  0.68258  0.90252     O
O      0.27832  0.90252  0.13658     O
O      0.27832  0.90252  0.68258     O
Cr     0.28061  0.28061  0.71939    Cr
Cr     0.28061  0.71939  0.28061    Cr
Cr     0.28061  0.71939  0.71939    Cr
O      0.28084  0.08273  0.65527     O
O      0.28084  0.08273  0.98116     O
O      0.28084  0.65527  0.08273     O
O      0.28084  0.65527  0.98116     O
O      0.28084  0.98116  0.08273     O
O      0.28084  0.98116  0.65527     O
O      0.28245  0.32559  0.51346     O
O      0.28245  0.32559   0.8785     O
O      0.28245  0.51346  0.32559     O
O      0.28245  0.51346   0.8785     O
O      0.28245   0.8785  0.32559     O
O      0.28245   0.8785  0.51346     O
C      0.28528  0.18578  0.57534     C
C      0.28528  0.18578   0.9536     C
C      0.28528  0.57534  0.18578     C
C      0.28528  0.57534   0.9536     C
C      0.28528   0.9536  0.18578     C
C      0.28528   0.9536  0.57534     C
C      0.28852  0.24154  0.54271     C
C      0.28852  0.24154  0.92723     C
C      0.28852  0.54271  0.24154     C
C      0.28852  0.54271  0.92723     C
C      0.28852  0.92723  0.24154     C
C      0.28852  0.92723  0.54271     C
C      0.29291  0.01402  0.01402     C
C      0.29291  0.01402  0.67905     C
C      0.29291  0.67905  0.01402     C
Cr       0.295  0.35945  0.50366    Cr
Cr       0.295  0.35945  0.84189    Cr
Cr       0.295  0.50366  0.35945    Cr
Cr       0.295  0.50366  0.84189    Cr
Cr       0.295  0.84189  0.35945    Cr
Cr       0.295  0.84189  0.50366    Cr
C      0.29572  0.29572  0.51876     C
C      0.29572  0.29572   0.8898     C
C      0.29572  0.51876  0.29572     C
C      0.29572  0.51876   0.8898     C
C      0.29572   0.8898  0.29572     C
C      0.29572   0.8898  0.51876     C
C       0.2964  0.06422  0.67466     C
C       0.2964  0.06422  0.96472     C
C       0.2964  0.67466  0.06422     C
C       0.2964  0.67466  0.96472     C
C       0.2964  0.96472  0.06422     C
C       0.2964  0.96472  0.67466     C
O      0.29786  0.34731  0.57236     O
O      0.29786  0.34731  0.78247     O
O      0.29786  0.57236  0.34731     O
O      0.29786  0.57236  0.78247     O
O      0.29786  0.78247  0.34731     O
O      0.29786  0.78247  0.57236     O
O      0.30182  0.20927  0.71724     O
O      0.30182  0.20927  0.77167     O
O      0.30182  0.71724  0.20927     O
O      0.30182  0.71724  0.77167     O
O      0.30182  0.77167  0.20927     O
O      0.30182  0.77167  0.71724     O
O      0.30193  0.00097    0.103     O
O      0.30193  0.00097   0.5941     O
O      0.30193    0.103  0.00097     O
O      0.30193    0.103   0.5941     O
O      0.30193   0.5941  0.00097     O
O      0.30193   0.5941    0.103     O
C       0.3024   0.0286  0.68853     C
C       0.3024   0.0286  0.98047     C
C       0.3024  0.68853   0.0286     C
C       0.3024  0.68853  0.98047     C
C       0.3024  0.98047   0.0286     C
C       0.3024  0.98047  0.68853     C
O      0.30293  0.39631  0.49277     O
O      0.30293  0.39631  0.80799     O
O      0.30293  0.49277  0.39631     O
O      0.30293  0.49277  0.80799     O
O      0.30293  0.80799  0.39631     O
O      0.30293  0.80799  0.49277     O
O      0.30692  0.25729  0.69111     O
O      0.30692  0.25729  0.74468     O
O      0.30692  0.69111  0.25729     O
O      0.30692  0.69111  0.74468     O
O      0.30692  0.74468  0.25729     O
O      0.30692  0.74468  0.69111     O
O      0.30913  0.07436  0.68168     O
O      0.30913  0.07436  0.93483     O
O      0.30913  0.68168  0.07436     O
O      0.30913  0.68168  0.93483     O
O      0.30913  0.93483  0.07436     O
O      0.30913  0.93483  0.68168     O
C      0.31205  0.23024  0.69167     C
C      0.31205  0.23024  0.76604     C
C      0.31205  0.69167  0.23024     C
C      0.31205  0.69167  0.76604     C
C      0.31205  0.76604  0.23024     C
C      0.31205  0.76604  0.69167     C
H      0.31408  0.23093  0.53661     H
H      0.31408  0.23093  0.91838     H
H      0.31408  0.53661  0.23093     H
H      0.31408  0.53661  0.91838     H
H      0.31408  0.91838  0.23093     H
H      0.31408  0.91838  0.53661     H
O      0.31421    0.125    0.625     O
O      0.31421    0.125  0.93579     O
O      0.31421    0.625    0.125     O
O      0.31421    0.625  0.93579     O
O      0.31421  0.93579    0.125     O
O      0.31421  0.93579    0.625     O
O      0.31517  0.17564  0.56832     O
O      0.31517  0.17564  0.94087     O
O      0.31517  0.56832  0.17564     O
O      0.31517  0.56832  0.94087     O
O      0.31517  0.94087  0.17564     O
O      0.31517  0.94087  0.56832     O
C      0.31548  0.45424  0.45424     C
C      0.31548  0.45424  0.77604     C
C      0.31548  0.77604  0.45424     C
O      0.31914  0.36245  0.46022     O
O      0.31914  0.36245  0.85819     O
O      0.31914  0.46022  0.36245     O
O      0.31914  0.46022  0.85819     O
O      0.31914  0.85819  0.36245     O
O      0.31914  0.85819  0.46022     O
C       0.3194   0.4025  0.49947     C
C       0.3194   0.4025  0.77863     C
C       0.3194  0.49947   0.4025     C
C       0.3194  0.49947  0.77863     C
C       0.3194  0.77863   0.4025     C
C       0.3194  0.77863  0.49947     C
Cr     0.32011  0.11072  0.66469    Cr
Cr     0.32011  0.11072  0.90448    Cr
Cr     0.32011  0.66469  0.11072    Cr
Cr     0.32011  0.66469  0.90448    Cr
Cr     0.32011  0.90448  0.11072    Cr
Cr     0.32011  0.90448  0.66469    Cr
C      0.32277  0.00846  0.70729     C
C      0.32277  0.00846  0.96148     C
C      0.32277  0.70729  0.00846     C
C      0.32277  0.70729  0.96148     C
C      0.32277  0.96148  0.00846     C
C      0.32277  0.96148  0.70729     C
H      0.32385  0.17806  0.68043     H
H      0.32385  0.17806  0.81766     H
H      0.32385  0.68043  0.17806     H
H      0.32385  0.68043  0.81766     H
H      0.32385  0.81766  0.17806     H
H      0.32385  0.81766  0.68043     H
C      0.32518  0.43349  0.48099     C
C      0.32518  0.43349  0.76034     C
C      0.32518  0.48099  0.43349     C
C      0.32518  0.48099  0.76034     C
C      0.32518  0.76034  0.43349     C
C      0.32518  0.76034  0.48099     C
O      0.32559  0.28245  0.51346     O
O      0.32559  0.28245   0.8785     O
O      0.32559  0.51346  0.28245     O
O      0.32559  0.51346   0.8785     O
O      0.32559   0.8785  0.28245     O
O      0.32559   0.8785  0.51346     O
C      0.32917  0.22392  0.66041     C
C      0.32917  0.22392   0.7865     C
C      0.32917  0.66041  0.22392     C
C      0.32917  0.66041   0.7865     C
C      0.32917   0.7865  0.22392     C
C      0.32917   0.7865  0.66041     C
C      0.33057  0.09781  0.57443     C
C      0.33057  0.09781  0.99719     C
C      0.33057  0.57443  0.09781     C
C      0.33057  0.57443  0.99719     C
C      0.33057  0.99719  0.09781     C
C      0.33057  0.99719  0.57443     C
C      0.33087  0.04951  0.04951     C
C      0.33087  0.04951  0.57011     C
C      0.33087  0.57011  0.04951     C
O       0.3314   0.3314   0.5173     O
O       0.3314   0.3314   0.8199     O
O       0.3314   0.5173   0.3314     O
O       0.3314   0.5173   0.8199     O
O       0.3314   0.8199   0.3314     O
O       0.3314   0.8199   0.5173     O
H      0.33162  0.01907  0.71339     H
H      0.33162  0.01907  0.93592     H
H      0.33162  0.71339  0.01907     H
H      0.33162  0.71339  0.93592     H
H      0.33162  0.93592  0.01907     H
H      0.33162  0.93592  0.71339     H
C      0.33215  0.19599   0.6587     C
C      0.33215  0.19599  0.81316     C
C      0.33215   0.6587  0.19599     C
C      0.33215   0.6587  0.81316     C
C      0.33215  0.81316  0.19599     C
C      0.33215  0.81316   0.6587     C
O       0.3326  0.14441  0.65275     O
O       0.3326  0.14441  0.87024     O
O       0.3326  0.65275  0.14441     O
O       0.3326  0.65275  0.87024     O
O       0.3326  0.87024  0.14441     O
O       0.3326  0.87024  0.65275     O
O      0.33297  0.38265  0.52007     O
O      0.33297  0.38265  0.76431     O
O      0.33297  0.52007  0.38265     O
O      0.33297  0.52007  0.76431     O
O      0.33297  0.76431  0.38265     O
O      0.33297  0.76431  0.52007     O
C      0.33383  0.71639  0.97489     C
C      0.33383  0.97489  0.71639     C
C      0.33383  0.97489  0.97489     C
H      0.33456  0.27027  0.63189     H
H      0.33456  0.27027  0.76328     H
H      0.33456  0.63189  0.27027     H
H      0.33456  0.63189  0.76328     H
H      0.33456  0.76328  0.27027     H
H      0.33456  0.76328  0.63189     H
C      0.33823  0.24792  0.63136     C
C      0.33823  0.24792  0.78249     C
C      0.33823  0.63136  0.24792     C
C      0.33823  0.63136  0.78249     C
C      0.33823  0.78249  0.24792     C
C      0.33823  0.78249  0.63136     C
Cr     0.33975  0.33975  0.54461    Cr
Cr     0.33975  0.33975  0.77589    Cr
Cr     0.33975  0.54461  0.33975    Cr
Cr     0.33975  0.54461  0.77589    Cr
Cr     0.33975  0.77589  0.33975    Cr
Cr     0.33975  0.77589  0.54461    Cr
C      0.34147   0.1654  0.62699     C
C      0.34147   0.1654  0.86614     C
C      0.34147  0.62699   0.1654     C
C      0.34147  0.62699  0.86614     C
C      0.34147  0.86614   0.1654     C
C      0.34147  0.86614  0.62699     C
C      0.34353  0.19207  0.62906     C
C      0.34353  0.19207  0.83534     C
C      0.34353  0.62906  0.19207     C
C      0.34353  0.62906  0.83534     C
C      0.34353  0.83534  0.19207     C
C      0.34353  0.83534  0.62906     C
C      0.34549  0.43958  0.48651     C
C      0.34549  0.43958  0.72842     C
C      0.34549  0.48651  0.43958     C
C      0.34549  0.48651  0.72842     C
C      0.34549  0.72842  0.43958     C
C      0.34549  0.72842  0.48651     C
Cr     0.34552  0.13928  0.58531    Cr
Cr     0.34552  0.13928  0.92989    Cr
Cr     0.34552  0.58531  0.13928    Cr
Cr     0.34552  0.58531  0.92989    Cr
Cr     0.34552  0.92989  0.13928    Cr
Cr     0.34552  0.92989  0.58531    Cr
C      0.34622  0.02258  0.07125     C
C      0.34622  0.02258  0.55995     C
C      0.34622  0.07125  0.02258     C
C      0.34622  0.07125  0.55995     C
C      0.34622  0.55995  0.02258     C
C      0.34622  0.55995  0.07125     C
C      0.34654  0.39368  0.39368     C
C      0.34654  0.39368   0.8661     C
C      0.34654   0.8661  0.39368     C
C       0.3466   0.3466  0.44557     C
C       0.3466   0.3466  0.86123     C
C       0.3466  0.44557   0.3466     C
C       0.3466  0.44557  0.86123     C
C       0.3466  0.86123   0.3466     C
C       0.3466  0.86123  0.44557     C
O      0.34727  0.16534  0.59987     O
O      0.34727  0.16534  0.88752     O
O      0.34727  0.59987  0.16534     O
O      0.34727  0.59987  0.88752     O
O      0.34727  0.88752  0.16534     O
O      0.34727  0.88752  0.59987     O
O      0.34731  0.29786  0.57236     O
O      0.34731  0.29786  0.78247     O
O      0.34731  0.57236  0.29786     O
O      0.34731  0.57236  0.78247     O
O      0.34731  0.78247  0.29786     O
O      0.34731  0.78247  0.57236     O
O      0.34748  0.11342  0.56742     O
O      0.34748  0.11342  0.97168     O
O      0.34748  0.56742  0.11342     O
O      0.34748  0.56742  0.97168     O
O      0.34748  0.97168  0.11342     O
O      0.34748  0.97168  0.56742     O
C      0.34975  0.24425  0.60153     C
C      0.34975  0.24425  0.80447     C
C      0.34975  0.60153  0.24425     C
C      0.34975  0.60153  0.80447     C
C      0.34975  0.80447  0.24425     C
C      0.34975  0.80447  0.60153     C
C      0.35305  0.27156  0.57109     C
C      0.35305  0.27156   0.8043     C
C      0.35305  0.57109  0.27156     C
C      0.35305  0.57109   0.8043     C
C      0.35305   0.8043  0.27156     C
C      0.35305   0.8043  0.57109     C
C      0.35306  0.21586  0.60101     C
C      0.35306  0.21586  0.83007     C
C      0.35306  0.60101  0.21586     C
C      0.35306  0.60101  0.83007     C
C      0.35306  0.83007  0.21586     C
C      0.35306  0.83007  0.60101     C
H      0.35453  0.42281  0.50603     H
H      0.35453  0.42281  0.71663     H
H      0.35453  0.50603  0.42281     H
H      0.35453  0.50603  0.71663     H
H      0.35453  0.71663  0.42281     H
H      0.35453  0.71663  0.50603     H
C      0.35664  0.46544  0.46544     C
C      0.35664  0.46544  0.71248     C
C      0.35664  0.71248  0.46544     C
Cr     0.35945    0.295  0.50366    Cr
Cr     0.35945    0.295  0.84189    Cr
Cr     0.35945  0.50366    0.295    Cr
Cr     0.35945  0.50366  0.84189    Cr
Cr     0.35945  0.84189    0.295    Cr
Cr     0.35945  0.84189  0.50366    Cr
O       0.3595  0.26799  0.54547     O
O       0.3595  0.26799  0.82704     O
O       0.3595  0.54547  0.26799     O
O       0.3595  0.54547  0.82704     O
O       0.3595  0.82704  0.26799     O
O       0.3595  0.82704  0.54547     O
C       0.3602  0.73124  0.95428     C
C       0.3602  0.95428  0.73124     C
C       0.3602  0.95428  0.95428     C
H      0.36109  0.21315  0.57839     H
H      0.36109  0.21315  0.84737     H
H      0.36109  0.57839  0.21315     H
H      0.36109  0.57839  0.84737     H
H      0.36109  0.84737  0.21315     H
H      0.36109  0.84737  0.57839     H
C      0.36177  0.36177  0.41008     C
C      0.36177  0.36177  0.86638     C
C      0.36177  0.41008  0.36177     C
C      0.36177  0.41008  0.86638     C
C      0.36177  0.86638  0.36177     C
C      0.36177  0.86638  0.41008     C
O      0.36245  0.31914  0.46022     O
O      0.36245  0.31914  0.85819     O
O      0.36245  0.46022  0.31914     O
O      0.36245  0.46022  0.85819     O
O      0.36245  0.85819  0.31914     O
O      0.36245  0.85819  0.46022     O
O      0.36248  0.08466  0.65013     O
O      0.36248  0.08466  0.90273     O
O      0.36248  0.65013  0.08466     O
O      0.36248  0.65013  0.90273     O
O      0.36248  0.90273  0.08466     O
O      0.36248  0.90273  0.65013     O
O       0.3715  0.73654  0.92441     O
O       0.3715  0.73654  0.96755     O
O       0.3715  0.92441  0.73654     O
O       0.3715  0.92441  0.96755     O
O       0.3715  0.96755  0.73654     O
O       0.3715  0.96755  0.92441     O
C      0.37864  0.01749  0.06475     C
C      0.37864  0.01749  0.53912     C
C      0.37864  0.06475  0.01749     C
C      0.37864  0.06475  0.53912     C
C      0.37864  0.53912  0.01749     C
C      0.37864  0.53912  0.06475     C
O      0.37976  0.10559  0.59725     O
O      0.37976  0.10559   0.9174     O
O      0.37976  0.59725  0.10559     O
O      0.37976  0.59725   0.9174     O
O      0.37976   0.9174  0.10559     O
O      0.37976   0.9174  0.59725     O
O      0.38265  0.33297  0.52007     O
O      0.38265  0.33297  0.76431     O
O      0.38265  0.52007  0.33297     O
O      0.38265  0.52007  0.76431     O
O      0.38265  0.76431  0.33297     O
O      0.38265  0.76431  0.52007     O
C      0.38362  0.83992  0.88823     C
C      0.38362  0.88823  0.83992     C
C      0.38362  0.88823  0.88823     C
C      0.38386   0.0846  0.62301     C
C      0.38386   0.0846  0.90853     C
C      0.38386  0.62301   0.0846     C
C      0.38386  0.62301  0.90853     C
C      0.38386  0.90853   0.0846     C
C      0.38386  0.90853  0.62301     C
C      0.38389   0.4671   0.4671     C
C      0.38389   0.4671  0.68191     C
C      0.38389  0.68191   0.4671     C
C       0.3839  0.85632  0.85632     C
C       0.3839  0.85632  0.90346     C
C       0.3839  0.90346  0.85632     C
C      0.38877  0.80443   0.9034     C
C      0.38877   0.9034  0.80443     C
C      0.38877   0.9034   0.9034     C
H      0.39126  0.08004  0.53221     H
H      0.39126  0.08004  0.99649     H
H      0.39126  0.53221  0.08004     H
H      0.39126  0.53221  0.99649     H
H      0.39126  0.99649  0.08004     H
H      0.39126  0.99649  0.53221     H
O      0.39181  0.78978  0.88755     O
O      0.39181  0.78978  0.93086     O
O      0.39181  0.88755  0.78978     O
O      0.39181  0.88755  0.93086     O
O      0.39181  0.93086  0.78978     O
O      0.39181  0.93086  0.88755     O
C      0.39368  0.34654  0.39368     C
C      0.39368  0.34654   0.8661     C
C      0.39368  0.39368  0.34654     C
C      0.39368  0.39368   0.8661     C
C      0.39368   0.8661  0.34654     C
C      0.39368   0.8661  0.39368     C
O       0.3956  0.44555  0.48882     O
O       0.3956  0.44555  0.67003     O
O       0.3956  0.48882  0.44555     O
O       0.3956  0.48882  0.67003     O
O       0.3956  0.67003  0.44555     O
O       0.3956  0.67003  0.48882     O
C      0.39566  0.03797  0.03797     C
C      0.39566  0.03797   0.5284     C
C      0.39566   0.5284  0.03797     C
O      0.39631  0.30293  0.49277     O
O      0.39631  0.30293  0.80799     O
O      0.39631  0.49277  0.30293     O
O      0.39631  0.49277  0.80799     O
O      0.39631  0.80799  0.30293     O
O      0.39631  0.80799  0.49277     O
C       0.4025   0.3194  0.49947     C
C       0.4025   0.3194  0.77863     C
C       0.4025  0.49947   0.3194     C
C       0.4025  0.49947  0.77863     C
C       0.4025  0.77863   0.3194     C
C       0.4025  0.77863  0.49947     C
H      0.40263  0.03685  0.67161     H
H      0.40263  0.03685  0.88891     H
H      0.40263  0.67161  0.03685     H
H      0.40263  0.67161  0.88891     H
H      0.40263  0.88891  0.03685     H
H      0.40263  0.88891  0.67161     H
C      0.40719  0.51509  0.51509     C
C      0.40719  0.51509  0.56263     C
C      0.40719  0.56263  0.51509     C
C      0.40745  0.49958  0.54648     C
C      0.40745  0.54648  0.49958     C
C      0.40745  0.54648  0.54648     C
Cr     0.40811  0.74634  0.89055    Cr
Cr     0.40811  0.74634    0.955    Cr
Cr     0.40811  0.89055  0.74634    Cr
Cr     0.40811  0.89055    0.955    Cr
Cr     0.40811    0.955  0.74634    Cr
Cr     0.40811    0.955  0.89055    Cr
C      0.41008  0.36177  0.36177     C
C      0.41008  0.36177  0.86638     C
C      0.41008  0.86638  0.36177     C
C      0.41361   0.4966   0.4966     C
C      0.41361   0.4966  0.59319     C
C      0.41361  0.59319   0.4966     C
C      0.41466  0.05793  0.62094     C
C      0.41466  0.05793  0.90647     C
C      0.41466  0.62094  0.05793     C
C      0.41466  0.62094  0.90647     C
C      0.41466  0.90647  0.05793     C
C      0.41466  0.90647  0.62094     C
O      0.41729  0.46717  0.51049     O
O      0.41729  0.46717  0.60505     O
O      0.41729  0.51049  0.46717     O
O      0.41729  0.51049  0.60505     O
O      0.41729  0.60505  0.46717     O
O      0.41729  0.60505  0.51049     O
C      0.41993  0.03414  0.64899     C
C      0.41993  0.03414  0.89694     C
C      0.41993  0.64899  0.03414     C
C      0.41993  0.64899  0.89694     C
C      0.41993  0.89694  0.03414     C
C      0.41993  0.89694  0.64899     C
H      0.42281  0.35453  0.50603     H
H      0.42281  0.35453  0.71663     H
H      0.42281  0.50603  0.35453     H
H      0.42281  0.50603  0.71663     H
H      0.42281  0.71663  0.35453     H
H      0.42281  0.71663  0.50603     H
O      0.42296  0.70453   0.8905     O
O      0.42296  0.70453  0.98201     O
O      0.42296   0.8905  0.70453     O
O      0.42296   0.8905  0.98201     O
O      0.42296  0.98201  0.70453     O
O      0.42296  0.98201   0.8905     O
O       0.4301   0.7327   0.9186     O
O       0.4301   0.9186   0.7327     O
O       0.4301   0.9186   0.9186     O
C      0.43201  0.02914  0.02914     C
C      0.43201  0.02914  0.50971     C
C      0.43201  0.50971  0.02914     C
H      0.43234  0.07194  0.56957     H
H      0.43234  0.07194  0.92615     H
H      0.43234  0.56957  0.07194     H
H      0.43234  0.56957  0.92615     H
H      0.43234  0.92615  0.07194     H
H      0.43234  0.92615  0.56957     H
Cr     0.43256  0.43256  0.49733    Cr
Cr     0.43256  0.43256  0.63755    Cr
Cr     0.43256  0.49733  0.43256    Cr
Cr     0.43256  0.49733  0.63755    Cr
Cr     0.43256  0.63755  0.43256    Cr
Cr     0.43256  0.63755  0.49733    Cr
C      0.43349  0.32518  0.48099     C
C      0.43349  0.32518  0.76034     C
C      0.43349  0.48099  0.32518     C
C      0.43349  0.48099  0.76034     C
C      0.43349  0.76034  0.32518     C
C      0.43349  0.76034  0.48099     C
C      0.43684  0.05401   0.5913     C
C      0.43684  0.05401  0.91785     C
C      0.43684   0.5913  0.05401     C
C      0.43684   0.5913  0.91785     C
C      0.43684  0.91785  0.05401     C
C      0.43684  0.91785   0.5913     C
C      0.43958  0.34549  0.48651     C
C      0.43958  0.34549  0.72842     C
C      0.43958  0.48651  0.34549     C
C      0.43958  0.48651  0.72842     C
C      0.43958  0.72842  0.34549     C
C      0.43958  0.72842  0.48651     C
O      0.44201  0.75723  0.85369     O
O      0.44201  0.75723  0.94707     O
O      0.44201  0.85369  0.75723     O
O      0.44201  0.85369  0.94707     O
O      0.44201  0.94707  0.75723     O
O      0.44201  0.94707  0.85369     O
C      0.44553  0.00575  0.64847     C
C      0.44553  0.00575  0.90025     C
C      0.44553  0.64847  0.00575     C
C      0.44553  0.64847  0.90025     C
C      0.44553  0.90025  0.00575     C
C      0.44553  0.90025  0.64847     C
O      0.44555   0.3956  0.48882     O
O      0.44555   0.3956  0.67003     O
O      0.44555  0.48882   0.3956     O
O      0.44555  0.48882  0.67003     O
O      0.44555  0.67003   0.3956     O
O      0.44555  0.67003  0.48882     O
C      0.44557   0.3466   0.3466     C
C      0.44557   0.3466  0.86123     C
C      0.44557  0.86123   0.3466     C
C       0.4457  0.67891  0.89695     C
C       0.4457  0.67891  0.97844     C
C       0.4457  0.89695  0.67891     C
C       0.4457  0.89695  0.97844     C
C       0.4457  0.97844  0.67891     C
C       0.4457  0.97844  0.89695     C
O      0.44698  0.00357  0.04674     O
O      0.44698  0.00357  0.50271     O
O      0.44698  0.04674  0.00357     O
O      0.44698  0.04674  0.50271     O
O      0.44698  0.50271  0.00357     O
O      0.44698  0.50271  0.04674     O
O      0.45415  0.45415  0.45415     O
O      0.45415  0.45415  0.63755     O
O      0.45415  0.63755  0.45415     O
C      0.45424  0.31548  0.45424     C
C      0.45424  0.31548  0.77604     C
C      0.45424  0.45424  0.31548     C
C      0.45424  0.45424  0.77604     C
C      0.45424  0.77604  0.31548     C
C      0.45424  0.77604  0.45424     C
O      0.46022  0.31914  0.36245     O
O      0.46022  0.31914  0.85819     O
O      0.46022  0.36245  0.31914     O
O      0.46022  0.36245  0.85819     O
O      0.46022  0.85819  0.31914     O
O      0.46022  0.85819  0.36245     O
C       0.4635  0.02608  0.58959     C
C       0.4635  0.02608  0.92083     C
C       0.4635  0.58959  0.02608     C
C       0.4635  0.58959  0.92083     C
C       0.4635  0.92083  0.02608     C
C       0.4635  0.92083  0.58959     C
C      0.46544  0.35664  0.46544     C
C      0.46544  0.35664  0.71248     C
C      0.46544  0.46544  0.35664     C
C      0.46544  0.46544  0.71248     C
C      0.46544  0.71248  0.35664     C
C      0.46544  0.71248  0.46544     C
C       0.4671  0.38389   0.4671     C
C       0.4671  0.38389  0.68191     C
C       0.4671   0.4671  0.38389     C
C       0.4671   0.4671  0.68191     C
C       0.4671  0.68191  0.38389     C
C       0.4671  0.68191   0.4671     C
O      0.46717  0.41729  0.51049     O
O      0.46717  0.41729  0.60505     O
O      0.46717  0.51049  0.41729     O
O      0.46717  0.51049  0.60505     O
O      0.46717  0.60505  0.41729     O
O      0.46717  0.60505  0.51049     O
C      0.46751  0.00208  0.61864     C
C      0.46751  0.00208  0.91177     C
C      0.46751  0.61864  0.00208     C
C      0.46751  0.61864  0.91177     C
C      0.46751  0.91177  0.00208     C
C      0.46751  0.91177  0.61864     C
O      0.46753  0.67764  0.90269     O
O      0.46753  0.67764  0.95214     O
O      0.46753  0.90269  0.67764     O
O      0.46753  0.90269  0.95214     O
O      0.46753  0.95214  0.67764     O
O      0.46753  0.95214  0.90269     O
C      0.47137  0.75053   0.8475     C
C      0.47137  0.75053   0.9306     C
C      0.47137   0.8475  0.75053     C
C      0.47137   0.8475   0.9306     C
C      0.47137   0.9306  0.75053     C
C      0.47137   0.9306   0.8475     C
C      0.47396  0.79576  0.79576     C
C      0.47396  0.79576  0.93452     C
C      0.47396  0.93452  0.79576     C
Cr     0.47411  0.70539  0.91025    Cr
Cr     0.47411  0.91025  0.70539    Cr
Cr     0.47411  0.91025  0.91025    Cr
O      0.47833  0.04073  0.53276     O
O      0.47833  0.04073  0.94818     O
O      0.47833  0.53276  0.04073     O
O      0.47833  0.53276  0.94818     O
O      0.47833  0.94818  0.04073     O
O      0.47833  0.94818  0.53276     O
C      0.48099  0.32518  0.43349     C
C      0.48099  0.32518  0.76034     C
C      0.48099  0.43349  0.32518     C
C      0.48099  0.43349  0.76034     C
C      0.48099  0.76034  0.32518     C
C      0.48099  0.76034  0.43349     C
C      0.48396  0.01976  0.55833     C
C      0.48396  0.01976  0.93795     C
C      0.48396  0.55833  0.01976     C
C      0.48396  0.55833  0.93795     C
C      0.48396  0.93795  0.01976     C
C      0.48396  0.93795  0.55833     C
O      0.48569  0.72993  0.86735     O
O      0.48569  0.72993  0.91703     O
O      0.48569  0.86735  0.72993     O
O      0.48569  0.86735  0.91703     O
O      0.48569  0.91703  0.72993     O
O      0.48569  0.91703  0.86735     O
C      0.48651  0.34549  0.43958     C
C      0.48651  0.34549  0.72842     C
C      0.48651  0.43958  0.34549     C
C      0.48651  0.43958  0.72842     C
C      0.48651  0.72842  0.34549     C
C      0.48651  0.72842  0.43958     C
H      0.48672  0.61811  0.91544     H
H      0.48672  0.61811  0.97973     H
H      0.48672  0.91544  0.61811     H
H      0.48672  0.91544  0.97973     H
H      0.48672  0.97973  0.61811     H
H      0.48672  0.97973  0.91544     H
O      0.48882   0.3956  0.44555     O
O      0.48882   0.3956  0.67003     O
O      0.48882  0.44555   0.3956     O
O      0.48882  0.44555  0.67003     O
O      0.48882  0.67003   0.3956     O
O      0.48882  0.67003  0.44555     O
C      0.48966  0.76901  0.81651     C
C      0.48966  0.76901  0.92482     C
C      0.48966  0.81651  0.76901     C
C      0.48966  0.81651  0.92482     C
C      0.48966  0.92482  0.76901     C
C      0.48966  0.92482  0.81651     C
Cr      0.4908  0.04143   0.4908    Cr
Cr      0.4908  0.04143  0.97696    Cr
Cr      0.4908   0.4908  0.04143    Cr
Cr      0.4908   0.4908  0.97696    Cr
Cr      0.4908  0.97696  0.04143    Cr
Cr      0.4908  0.97696   0.4908    Cr
O      0.49277  0.30293  0.39631     O
O      0.49277  0.30293  0.80799     O
O      0.49277  0.39631  0.30293     O
O      0.49277  0.39631  0.80799     O
O      0.49277  0.80799  0.30293     O
O      0.49277  0.80799  0.39631     O
C       0.4966  0.41361   0.4966     C
C       0.4966  0.41361  0.59319     C
C       0.4966   0.4966  0.41361     C
C       0.4966   0.4966  0.59319     C
C       0.4966  0.59319  0.41361     C
C       0.4966  0.59319   0.4966     C
Cr     0.49733  0.43256  0.43256    Cr
Cr     0.49733  0.43256  0.63755    Cr
Cr     0.49733  0.63755  0.43256    Cr
C      0.49947   0.3194   0.4025     C
C      0.49947   0.3194  0.77863     C
C      0.49947   0.4025   0.3194     C
C      0.49947   0.4025  0.77863     C
C      0.49947  0.77863   0.3194     C
C      0.49947  0.77863   0.4025     C
C      0.49958  0.40745  0.54648     C
C      0.49958  0.54648  0.40745     C
C      0.49958  0.54648  0.54648     C
O      0.50271  0.00357  0.04674     O
O      0.50271  0.00357  0.44698     O
O      0.50271  0.04674  0.00357     O
O      0.50271  0.04674  0.44698     O
O      0.50271  0.44698  0.00357     O
O      0.50271  0.44698  0.04674     O
Cr     0.50366    0.295  0.35945    Cr
Cr     0.50366    0.295  0.84189    Cr
Cr     0.50366  0.35945    0.295    Cr
Cr     0.50366  0.35945  0.84189    Cr
Cr     0.50366  0.84189    0.295    Cr
Cr     0.50366  0.84189  0.35945    Cr
O      0.50408  0.50408  0.99592     O
O      0.50408  0.99592  0.50408     O
O      0.50408  0.99592  0.99592     O
O      0.50532  0.55889  0.94308     O
O      0.50532  0.55889  0.99271     O
O      0.50532  0.94308  0.55889     O
O      0.50532  0.94308  0.99271     O
O      0.50532  0.99271  0.55889     O
O      0.50532  0.99271  0.94308     O
H      0.50603  0.35453  0.42281     H
H      0.50603  0.35453  0.71663     H
H      0.50603  0.42281  0.35453     H
H      0.50603  0.42281  0.71663     H
H      0.50603  0.71663  0.35453     H
H      0.50603  0.71663  0.42281     H
C      0.50971  0.02914  0.02914     C
C      0.50971  0.02914  0.43201     C
C      0.50971  0.43201  0.02914     C
O      0.51049  0.41729  0.46717     O
O      0.51049  0.41729  0.60505     O
O      0.51049  0.46717  0.41729     O
O      0.51049  0.46717  0.60505     O
O      0.51049  0.60505  0.41729     O
O      0.51049  0.60505  0.46717     O
O      0.51346  0.28245  0.32559     O
O      0.51346  0.28245   0.8785     O
O      0.51346  0.32559  0.28245     O
O      0.51346  0.32559   0.8785     O
O      0.51346   0.8785  0.28245     O
O      0.51346   0.8785  0.32559     O
C      0.51509  0.40719  0.51509     C
C      0.51509  0.40719  0.56263     C
C      0.51509  0.51509  0.40719     C
C      0.51509  0.51509  0.56263     C
C      0.51509  0.56263  0.40719     C
C      0.51509  0.56263  0.51509     C
O       0.5173   0.3314   0.3314     O
O       0.5173   0.3314   0.8199     O
O       0.5173   0.8199   0.3314     O
C      0.51876  0.29572  0.29572     C
C      0.51876  0.29572   0.8898     C
C      0.51876   0.8898  0.29572     C
O      0.52007  0.33297  0.38265     O
O      0.52007  0.33297  0.76431     O
O      0.52007  0.38265  0.33297     O
O      0.52007  0.38265  0.76431     O
O      0.52007  0.76431  0.33297     O
O      0.52007  0.76431  0.38265     O
C      0.52158  0.76349  0.81042     C
C      0.52158  0.76349  0.90451     C
C      0.52158  0.81042  0.76349     C
C      0.52158  0.81042  0.90451     C
C      0.52158  0.90451  0.76349     C
C      0.52158  0.90451  0.81042     C
C       0.5284  0.03797  0.03797     C
C       0.5284  0.03797  0.39566     C
C       0.5284  0.39566  0.03797     C
Cr     0.53061  0.53061  0.96939    Cr
Cr     0.53061  0.96939  0.53061    Cr
Cr     0.53061  0.96939  0.96939    Cr
H      0.53221  0.08004  0.39126     H
H      0.53221  0.08004  0.99649     H
H      0.53221  0.39126  0.08004     H
H      0.53221  0.39126  0.99649     H
H      0.53221  0.99649  0.08004     H
H      0.53221  0.99649  0.39126     H
O      0.53276  0.04073  0.47833     O
O      0.53276  0.04073  0.94818     O
O      0.53276  0.47833  0.04073     O
O      0.53276  0.47833  0.94818     O
O      0.53276  0.94818  0.04073     O
O      0.53276  0.94818  0.47833     O
H      0.53337  0.74397  0.82719     H
H      0.53337  0.74397  0.89547     H
H      0.53337  0.82719  0.74397     H
H      0.53337  0.82719  0.89547     H
H      0.53337  0.89547  0.74397     H
H      0.53337  0.89547  0.82719     H
C      0.53361  0.27511  0.27511     C
C      0.53361  0.27511  0.91617     C
C      0.53361  0.91617  0.27511     C
H      0.53661  0.23093  0.31408     H
H      0.53661  0.23093  0.91838     H
H      0.53661  0.31408  0.23093     H
H      0.53661  0.31408  0.91838     H
H      0.53661  0.91838  0.23093     H
H      0.53661  0.91838  0.31408     H
C      0.53752  0.78456  0.78456     C
C      0.53752  0.78456  0.89336     C
C      0.53752  0.89336  0.78456     C
C      0.53912  0.01749  0.06475     C
C      0.53912  0.01749  0.37864     C
C      0.53912  0.06475  0.01749     C
C      0.53912  0.06475  0.37864     C
C      0.53912  0.37864  0.01749     C
C      0.53912  0.37864  0.06475     C
C      0.54271  0.24154  0.28852     C
C      0.54271  0.24154  0.92723     C
C      0.54271  0.28852  0.24154     C
C      0.54271  0.28852  0.92723     C
C      0.54271  0.92723  0.24154     C
C      0.54271  0.92723  0.28852     C
Cr     0.54461  0.33975  0.33975    Cr
Cr     0.54461  0.33975  0.77589    Cr
Cr     0.54461  0.77589  0.33975    Cr
O      0.54547  0.26799   0.3595     O
O      0.54547  0.26799  0.82704     O
O      0.54547   0.3595  0.26799     O
O      0.54547   0.3595  0.82704     O
O      0.54547  0.82704  0.26799     O
O      0.54547  0.82704   0.3595     O
C      0.54648  0.40745  0.49958     C
C      0.54648  0.40745  0.54648     C
C      0.54648  0.49958  0.40745     C
C      0.54648  0.49958  0.54648     C
C      0.54648  0.54648  0.40745     C
C      0.54648  0.54648  0.49958     C
C      0.55833  0.01976  0.48396     C
C      0.55833  0.01976  0.93795     C
C      0.55833  0.48396  0.01976     C
C      0.55833  0.48396  0.93795     C
C      0.55833  0.93795  0.01976     C
C      0.55833  0.93795  0.48396     C
O      0.55889  0.50532  0.94308     O
O      0.55889  0.50532  0.99271     O
O      0.55889  0.94308  0.50532     O
O      0.55889  0.94308  0.99271     O
O      0.55889  0.99271  0.50532     O
O      0.55889  0.99271  0.94308     O
C      0.55995  0.02258  0.07125     C
C      0.55995  0.02258  0.34622     C
C      0.55995  0.07125  0.02258     C
C      0.55995  0.07125  0.34622     C
C      0.55995  0.34622  0.02258     C
C      0.55995  0.34622  0.07125     C
C      0.56147   0.2214  0.26953     C
C      0.56147   0.2214   0.9476     C
C      0.56147  0.26953   0.2214     C
C      0.56147  0.26953   0.9476     C
C      0.56147   0.9476   0.2214     C
C      0.56147   0.9476  0.26953     C
C      0.56263  0.40719  0.51509     C
C      0.56263  0.51509  0.40719     C
C      0.56263  0.51509  0.51509     C
O      0.56742  0.11342  0.34748     O
O      0.56742  0.11342  0.97168     O
O      0.56742  0.34748  0.11342     O
O      0.56742  0.34748  0.97168     O
O      0.56742  0.97168  0.11342     O
O      0.56742  0.97168  0.34748     O
C      0.56809   0.7829   0.7829     C
C      0.56809   0.7829  0.86611     C
C      0.56809  0.86611   0.7829     C
O      0.56832  0.17564  0.31517     O
O      0.56832  0.17564  0.94087     O
O      0.56832  0.31517  0.17564     O
O      0.56832  0.31517  0.94087     O
O      0.56832  0.94087  0.17564     O
O      0.56832  0.94087  0.31517     O
H      0.56957  0.07194  0.43234     H
H      0.56957  0.07194  0.92615     H
H      0.56957  0.43234  0.07194     H
H      0.56957  0.43234  0.92615     H
H      0.56957  0.92615  0.07194     H
H      0.56957  0.92615  0.43234     H
C      0.57011  0.04951  0.04951     C
C      0.57011  0.04951  0.33087     C
C      0.57011  0.33087  0.04951     C
C      0.57095  0.23598  0.23598     C
C      0.57095  0.23598  0.95709     C
C      0.57095  0.95709  0.23598     C
C      0.57109  0.27156  0.35305     C
C      0.57109  0.27156   0.8043     C
C      0.57109  0.35305  0.27156     C
C      0.57109  0.35305   0.8043     C
C      0.57109   0.8043  0.27156     C
C      0.57109   0.8043  0.35305     C
O      0.57236  0.29786  0.34731     O
O      0.57236  0.29786  0.78247     O
O      0.57236  0.34731  0.29786     O
O      0.57236  0.34731  0.78247     O
O      0.57236  0.78247  0.29786     O
O      0.57236  0.78247  0.34731     O
C      0.57443  0.09781  0.33057     C
C      0.57443  0.09781  0.99719     C
C      0.57443  0.33057  0.09781     C
C      0.57443  0.33057  0.99719     C
C      0.57443  0.99719  0.09781     C
C      0.57443  0.99719  0.33057     C
C      0.57534  0.18578  0.28528     C
C      0.57534  0.18578   0.9536     C
C      0.57534  0.28528  0.18578     C
C      0.57534  0.28528   0.9536     C
C      0.57534   0.9536  0.18578     C
C      0.57534   0.9536  0.28528     C
H      0.57839  0.21315  0.36109     H
H      0.57839  0.21315  0.84737     H
H      0.57839  0.36109  0.21315     H
H      0.57839  0.36109  0.84737     H
H      0.57839  0.84737  0.21315     H
H      0.57839  0.84737  0.36109     H
O      0.57997  0.76118  0.80445     O
O      0.57997  0.76118   0.8544     O
O      0.57997  0.80445  0.76118     O
O      0.57997  0.80445   0.8544     O
O      0.57997   0.8544  0.76118     O
O      0.57997   0.8544  0.80445     O
Cr     0.58531  0.13928  0.34552    Cr
Cr     0.58531  0.13928  0.92989    Cr
Cr     0.58531  0.34552  0.13928    Cr
Cr     0.58531  0.34552  0.92989    Cr
Cr     0.58531  0.92989  0.13928    Cr
Cr     0.58531  0.92989  0.34552    Cr
C      0.58959  0.02608   0.4635     C
C      0.58959  0.02608  0.92083     C
C      0.58959   0.4635  0.02608     C
C      0.58959   0.4635  0.92083     C
C      0.58959  0.92083  0.02608     C
C      0.58959  0.92083   0.4635     C
C       0.5913  0.05401  0.43684     C
C       0.5913  0.05401  0.91785     C
C       0.5913  0.43684  0.05401     C
C       0.5913  0.43684  0.91785     C
C       0.5913  0.91785  0.05401     C
C       0.5913  0.91785  0.43684     C
C      0.59319  0.41361   0.4966     C
C      0.59319   0.4966  0.41361     C
C      0.59319   0.4966   0.4966     C
O       0.5941  0.00097    0.103     O
O       0.5941  0.00097  0.30193     O
O       0.5941    0.103  0.00097     O
O       0.5941    0.103  0.30193     O
O       0.5941  0.30193  0.00097     O
O       0.5941  0.30193    0.103     O
O      0.59473  0.16727  0.26884     O
O      0.59473  0.16727  0.96916     O
O      0.59473  0.26884  0.16727     O
O      0.59473  0.26884  0.96916     O
O      0.59473  0.96916  0.16727     O
O      0.59473  0.96916  0.26884     O
O      0.59725  0.10559  0.37976     O
O      0.59725  0.10559   0.9174     O
O      0.59725  0.37976  0.10559     O
O      0.59725  0.37976   0.9174     O
O      0.59725   0.9174  0.10559     O
O      0.59725   0.9174  0.37976     O
O      0.59987  0.16534  0.34727     O
O      0.59987  0.16534  0.88752     O
O      0.59987  0.34727  0.16534     O
O      0.59987  0.34727  0.88752     O
O      0.59987  0.88752  0.16534     O
O      0.59987  0.88752  0.34727     O
C      0.60101  0.21586  0.35306     C
C      0.60101  0.21586  0.83007     C
C      0.60101  0.35306  0.21586     C
C      0.60101  0.35306  0.83007     C
C      0.60101  0.83007  0.21586     C
C      0.60101  0.83007  0.35306     C
C      0.60153  0.24425  0.34975     C
C      0.60153  0.24425  0.80447     C
C      0.60153  0.34975  0.24425     C
C      0.60153  0.34975  0.80447     C
C      0.60153  0.80447  0.24425     C
C      0.60153  0.80447  0.34975     C
O      0.60505  0.41729  0.46717     O
O      0.60505  0.41729  0.51049     O
O      0.60505  0.46717  0.41729     O
O      0.60505  0.46717  0.51049     O
O      0.60505  0.51049  0.41729     O
O      0.60505  0.51049  0.46717     O
Cr     0.61245  0.75267  0.81744    Cr
O      0.61245  0.79585  0.79585     O
Cr     0.61245  0.81744  0.75267    Cr
Cr     0.61245  0.81744  0.81744    Cr
H      0.61811  0.48672  0.91544     H
H      0.61811  0.48672  0.97973     H
H      0.61811  0.91544  0.48672     H
H      0.61811  0.91544  0.97973     H
H      0.61811  0.97973  0.48672     H
H      0.61811  0.97973  0.91544     H
C      0.61864  0.00208  0.46751     C
C      0.61864  0.00208  0.91177     C
C      0.61864  0.46751  0.00208     C
C      0.61864  0.46751  0.91177     C
C      0.61864  0.91177  0.00208     C
C      0.61864  0.91177  0.46751     C
C      0.62094  0.05793  0.41466     C
C      0.62094  0.05793  0.90647     C
C      0.62094  0.41466  0.05793     C
C      0.62094  0.41466  0.90647     C
C      0.62094  0.90647  0.05793     C
C      0.62094  0.90647  0.41466     C
C      0.62301   0.0846  0.38386     C
C      0.62301   0.0846  0.90853     C
C      0.62301  0.38386   0.0846     C
C      0.62301  0.38386  0.90853     C
C      0.62301  0.90853   0.0846     C
C      0.62301  0.90853  0.38386     C
Cr       0.625    0.125  0.27693    Cr
O        0.625    0.125  0.31421     O
O        0.625    0.125  0.93579     O
Cr       0.625    0.125  0.97307    Cr
Cr       0.625  0.27693    0.125    Cr
Cr       0.625  0.27693  0.97307    Cr
O        0.625  0.31421    0.125     O
O        0.625  0.31421  0.93579     O
O        0.625  0.93579    0.125     O
O        0.625  0.93579  0.31421     O
Cr       0.625  0.97307    0.125    Cr
Cr       0.625  0.97307  0.27693    Cr
C      0.62699   0.1654  0.34147     C
C      0.62699   0.1654  0.86614     C
C      0.62699  0.34147   0.1654     C
C      0.62699  0.34147  0.86614     C
C      0.62699  0.86614   0.1654     C
C      0.62699  0.86614  0.34147     C
C      0.62906  0.19207  0.34353     C
C      0.62906  0.19207  0.83534     C
C      0.62906  0.34353  0.19207     C
C      0.62906  0.34353  0.83534     C
C      0.62906  0.83534  0.19207     C
C      0.62906  0.83534  0.34353     C
C      0.63136  0.24792  0.33823     C
C      0.63136  0.24792  0.78249     C
C      0.63136  0.33823  0.24792     C
C      0.63136  0.33823  0.78249     C
C      0.63136  0.78249  0.24792     C
C      0.63136  0.78249  0.33823     C
H      0.63189  0.27027  0.33456     H
H      0.63189  0.27027  0.76328     H
H      0.63189  0.33456  0.27027     H
H      0.63189  0.33456  0.76328     H
H      0.63189  0.76328  0.27027     H
H      0.63189  0.76328  0.33456     H
Cr     0.63755  0.43256  0.43256    Cr
Cr     0.63755  0.43256  0.49733    Cr
O      0.63755  0.45415  0.45415     O
Cr     0.63755  0.49733  0.43256    Cr
O      0.64495  0.73951  0.78283     O
O      0.64495  0.73951  0.83271     O
O      0.64495  0.78283  0.73951     O
O      0.64495  0.78283  0.83271     O
O      0.64495  0.83271  0.73951     O
O      0.64495  0.83271  0.78283     O
C      0.64847  0.00575  0.44553     C
C      0.64847  0.00575  0.90025     C
C      0.64847  0.44553  0.00575     C
C      0.64847  0.44553  0.90025     C
C      0.64847  0.90025  0.00575     C
C      0.64847  0.90025  0.44553     C
C      0.64899  0.03414  0.41993     C
C      0.64899  0.03414  0.89694     C
C      0.64899  0.41993  0.03414     C
C      0.64899  0.41993  0.89694     C
C      0.64899  0.89694  0.03414     C
C      0.64899  0.89694  0.41993     C
O      0.65013  0.08466  0.36248     O
O      0.65013  0.08466  0.90273     O
O      0.65013  0.36248  0.08466     O
O      0.65013  0.36248  0.90273     O
O      0.65013  0.90273  0.08466     O
O      0.65013  0.90273  0.36248     O
O      0.65275  0.14441   0.3326     O
O      0.65275  0.14441  0.87024     O
O      0.65275   0.3326  0.14441     O
O      0.65275   0.3326  0.87024     O
O      0.65275  0.87024  0.14441     O
O      0.65275  0.87024   0.3326     O
O      0.65527  0.08273  0.28084     O
O      0.65527  0.08273  0.98116     O
O      0.65527  0.28084  0.08273     O
O      0.65527  0.28084  0.98116     O
O      0.65527  0.98116  0.08273     O
O      0.65527  0.98116  0.28084     O
O       0.6559    0.147  0.24903     O
O       0.6559    0.147  0.94807     O
O       0.6559  0.24903    0.147     O
O       0.6559  0.24903  0.94807     O
O       0.6559  0.94807    0.147     O
O       0.6559  0.94807  0.24903     O
C      0.65681   0.7534   0.7534     C
C      0.65681   0.7534  0.83639     C
C      0.65681  0.83639   0.7534     C
C       0.6587  0.19599  0.33215     C
C       0.6587  0.19599  0.81316     C
C       0.6587  0.33215  0.19599     C
C       0.6587  0.33215  0.81316     C
C       0.6587  0.81316  0.19599     C
C       0.6587  0.81316  0.33215     C
C      0.66041  0.22392  0.32917     C
C      0.66041  0.22392   0.7865     C
C      0.66041  0.32917  0.22392     C
C      0.66041  0.32917   0.7865     C
C      0.66041   0.7865  0.22392     C
C      0.66041   0.7865  0.32917     C
Cr     0.66469  0.11072  0.32011    Cr
Cr     0.66469  0.11072  0.90448    Cr
Cr     0.66469  0.32011  0.11072    Cr
Cr     0.66469  0.32011  0.90448    Cr
Cr     0.66469  0.90448  0.11072    Cr
Cr     0.66469  0.90448  0.32011    Cr
O      0.67003   0.3956  0.44555     O
O      0.67003   0.3956  0.48882     O
O      0.67003  0.44555   0.3956     O
O      0.67003  0.44555  0.48882     O
O      0.67003  0.48882   0.3956     O
O      0.67003  0.48882  0.44555     O
H      0.67161  0.03685  0.40263     H
H      0.67161  0.03685  0.88891     H
H      0.67161  0.40263  0.03685     H
H      0.67161  0.40263  0.88891     H
H      0.67161  0.88891  0.03685     H
H      0.67161  0.88891  0.40263     H
C      0.67466  0.06422   0.2964     C
C      0.67466  0.06422  0.96472     C
C      0.67466   0.2964  0.06422     C
C      0.67466   0.2964  0.96472     C
C      0.67466  0.96472  0.06422     C
C      0.67466  0.96472   0.2964     C
C      0.67557  0.15219  0.25281     C
C      0.67557  0.15219  0.91943     C
C      0.67557  0.25281  0.15219     C
C      0.67557  0.25281  0.91943     C
C      0.67557  0.91943  0.15219     C
C      0.67557  0.91943  0.25281     C
O      0.67764  0.46753  0.90269     O
O      0.67764  0.46753  0.95214     O
O      0.67764  0.90269  0.46753     O
O      0.67764  0.90269  0.95214     O
O      0.67764  0.95214  0.46753     O
O      0.67764  0.95214  0.90269     O
C      0.67891   0.4457  0.89695     C
C      0.67891   0.4457  0.97844     C
C      0.67891  0.89695   0.4457     C
C      0.67891  0.89695  0.97844     C
C      0.67891  0.97844   0.4457     C
C      0.67891  0.97844  0.89695     C
C      0.67905  0.01402  0.01402     C
C      0.67905  0.01402  0.29291     C
C      0.67905  0.29291  0.01402     C
C      0.67989  0.20049  0.20049     C
C      0.67989  0.20049  0.91913     C
C      0.67989  0.91913  0.20049     C
H      0.68043  0.17806  0.32385     H
H      0.68043  0.17806  0.81766     H
H      0.68043  0.32385  0.17806     H
H      0.68043  0.32385  0.81766     H
H      0.68043  0.81766  0.17806     H
H      0.68043  0.81766  0.32385     H
O      0.68168  0.07436  0.30913     O
O      0.68168  0.07436  0.93483     O
O      0.68168  0.30913  0.07436     O
O      0.68168  0.30913  0.93483     O
O      0.68168  0.93483  0.07436     O
O      0.68168  0.93483  0.30913     O
C      0.68191  0.38389   0.4671     C
C      0.68191   0.4671  0.38389     C
C      0.68191   0.4671   0.4671     C
O      0.68258  0.13658  0.27832     O
O      0.68258  0.13658  0.90252     O
O      0.68258  0.27832  0.13658     O
O      0.68258  0.27832  0.90252     O
O      0.68258  0.90252  0.13658     O
O      0.68258  0.90252  0.27832     O
C      0.68737  0.73491  0.73491     C
C      0.68737  0.73491  0.84281     C
C      0.68737  0.84281  0.73491     C
C      0.68853   0.0286   0.3024     C
C      0.68853   0.0286  0.98047     C
C      0.68853   0.3024   0.0286     C
C      0.68853   0.3024  0.98047     C
C      0.68853  0.98047   0.0286     C
C      0.68853  0.98047   0.3024     C
C      0.69005  0.17875  0.22742     C
C      0.69005  0.17875  0.90378     C
C      0.69005  0.22742  0.17875     C
C      0.69005  0.22742  0.90378     C
C      0.69005  0.90378  0.17875     C
C      0.69005  0.90378  0.22742     C
O      0.69111  0.25729  0.30692     O
O      0.69111  0.25729  0.74468     O
O      0.69111  0.30692  0.25729     O
O      0.69111  0.30692  0.74468     O
O      0.69111  0.74468  0.25729     O
O      0.69111  0.74468  0.30692     O
C      0.69167  0.23024  0.31205     C
C      0.69167  0.23024  0.76604     C
C      0.69167  0.31205  0.23024     C
C      0.69167  0.31205  0.76604     C
C      0.69167  0.76604  0.23024     C
C      0.69167  0.76604  0.31205     C
C      0.70352  0.70352  0.75042     C
C      0.70352  0.70352  0.84255     C
C      0.70352  0.75042  0.70352     C
C      0.70352  0.75042  0.84255     C
C      0.70352  0.84255  0.70352     C
C      0.70352  0.84255  0.75042     C
O      0.70453  0.42296   0.8905     O
O      0.70453  0.42296  0.98201     O
O      0.70453   0.8905  0.42296     O
O      0.70453   0.8905  0.98201     O
O      0.70453  0.98201  0.42296     O
O      0.70453  0.98201   0.8905     O
Cr     0.70539  0.47411  0.91025    Cr
Cr     0.70539  0.91025  0.47411    Cr
Cr     0.70539  0.91025  0.91025    Cr
C      0.70729  0.00846  0.32277     C
C      0.70729  0.00846  0.96148     C
C      0.70729  0.32277  0.00846     C
C      0.70729  0.32277  0.96148     C
C      0.70729  0.96148  0.00846     C
C      0.70729  0.96148  0.32277     C
C      0.71088  0.18525  0.23251     C
C      0.71088  0.18525  0.87136     C
C      0.71088  0.23251  0.18525     C
C      0.71088  0.23251  0.87136     C
C      0.71088  0.87136  0.18525     C
C      0.71088  0.87136  0.23251     C
C      0.71248  0.35664  0.46544     C
C      0.71248  0.46544  0.35664     C
C      0.71248  0.46544  0.46544     C
H      0.71339  0.01907  0.33162     H
H      0.71339  0.01907  0.93592     H
H      0.71339  0.33162  0.01907     H
H      0.71339  0.33162  0.93592     H
H      0.71339  0.93592  0.01907     H
H      0.71339  0.93592  0.33162     H
C      0.71639  0.33383  0.97489     C
C      0.71639  0.97489  0.33383     C
C      0.71639  0.97489  0.97489     C
H      0.71663  0.35453  0.42281     H
H      0.71663  0.35453  0.50603     H
H      0.71663  0.42281  0.35453     H
H      0.71663  0.42281  0.50603     H
H      0.71663  0.50603  0.35453     H
H      0.71663  0.50603  0.42281     H
O      0.71724  0.20927  0.30182     O
O      0.71724  0.20927  0.77167     O
O      0.71724  0.30182  0.20927     O
O      0.71724  0.30182  0.77167     O
O      0.71724  0.77167  0.20927     O
O      0.71724  0.77167  0.30182     O
H      0.71779  0.16996  0.25351     H
H      0.71779  0.16996  0.85874     H
H      0.71779  0.25351  0.16996     H
H      0.71779  0.25351  0.85874     H
H      0.71779  0.85874  0.16996     H
H      0.71779  0.85874  0.25351     H
Cr     0.71939  0.28061  0.28061    Cr
Cr     0.71939  0.28061  0.71939    Cr
Cr     0.71939  0.71939  0.28061    Cr
C       0.7216  0.21203  0.21203     C
C       0.7216  0.21203  0.85434     C
C       0.7216  0.85434  0.21203     C
C      0.72842  0.34549  0.43958     C
C      0.72842  0.34549  0.48651     C
C      0.72842  0.43958  0.34549     C
C      0.72842  0.43958  0.48651     C
C      0.72842  0.48651  0.34549     C
C      0.72842  0.48651  0.43958     C
O      0.72993  0.48569  0.86735     O
O      0.72993  0.48569  0.91703     O
O      0.72993  0.86735  0.48569     O
O      0.72993  0.86735  0.91703     O
O      0.72993  0.91703  0.48569     O
O      0.72993  0.91703  0.86735     O
C      0.73124   0.3602  0.95428     C
C      0.73124  0.95428   0.3602     C
C      0.73124  0.95428  0.95428     C
O       0.7327   0.4301   0.9186     O
O       0.7327   0.9186   0.4301     O
O       0.7327   0.9186   0.9186     O
C      0.73491  0.68737  0.73491     C
C      0.73491  0.68737  0.84281     C
C      0.73491  0.73491  0.68737     C
C      0.73491  0.73491  0.84281     C
C      0.73491  0.84281  0.68737     C
C      0.73491  0.84281  0.73491     C
O      0.73654   0.3715  0.92441     O
O      0.73654   0.3715  0.96755     O
O      0.73654  0.92441   0.3715     O
O      0.73654  0.92441  0.96755     O
O      0.73654  0.96755   0.3715     O
O      0.73654  0.96755  0.92441     O
O      0.73951  0.64495  0.78283     O
O      0.73951  0.64495  0.83271     O
O      0.73951  0.78283  0.64495     O
O      0.73951  0.78283  0.83271     O
O      0.73951  0.83271  0.64495     O
O      0.73951  0.83271  0.78283     O
C      0.74029  0.22086  0.22086     C
C      0.74029  0.22086  0.81799     C
C      0.74029  0.81799  0.22086     C
H      0.74397  0.53337  0.82719     H
H      0.74397  0.53337  0.89547     H
H      0.74397  0.82719  0.53337     H
H      0.74397  0.82719  0.89547     H
H      0.74397  0.89547  0.53337     H
H      0.74397  0.89547  0.82719     H
O      0.74468  0.25729  0.30692     O
O      0.74468  0.25729  0.69111     O
O      0.74468  0.30692  0.25729     O
O      0.74468  0.30692  0.69111     O
O      0.74468  0.69111  0.25729     O
O      0.74468  0.69111  0.30692     O
O      0.74592  0.25408  0.25408     O
O      0.74592  0.25408  0.74592     O
O      0.74592  0.74592  0.25408     O
Cr     0.74634  0.40811  0.89055    Cr
Cr     0.74634  0.40811    0.955    Cr
Cr     0.74634  0.89055  0.40811    Cr
Cr     0.74634  0.89055    0.955    Cr
Cr     0.74634    0.955  0.40811    Cr
Cr     0.74634    0.955  0.89055    Cr
O      0.74729  0.20326  0.24643     O
O      0.74729  0.20326  0.80302     O
O      0.74729  0.24643  0.20326     O
O      0.74729  0.24643  0.80302     O
O      0.74729  0.80302  0.20326     O
O      0.74729  0.80302  0.24643     O
C      0.75042  0.70352  0.70352     C
C      0.75042  0.70352  0.84255     C
C      0.75042  0.84255  0.70352     C
C      0.75053  0.47137   0.8475     C
C      0.75053  0.47137   0.9306     C
C      0.75053   0.8475  0.47137     C
C      0.75053   0.8475   0.9306     C
C      0.75053   0.9306  0.47137     C
C      0.75053   0.9306   0.8475     C
Cr     0.75267  0.61245  0.81744    Cr
Cr     0.75267  0.81744  0.61245    Cr
Cr     0.75267  0.81744  0.81744    Cr
C       0.7534  0.65681   0.7534     C
C       0.7534  0.65681  0.83639     C
C       0.7534   0.7534  0.65681     C
C       0.7534   0.7534  0.83639     C
C       0.7534  0.83639  0.65681     C
C       0.7534  0.83639   0.7534     C
O      0.75723  0.44201  0.85369     O
O      0.75723  0.44201  0.94707     O
O      0.75723  0.85369  0.44201     O
O      0.75723  0.85369  0.94707     O
O      0.75723  0.94707  0.44201     O
O      0.75723  0.94707  0.85369     O
Cr      0.7592  0.20857  0.27304    Cr
Cr      0.7592  0.20857   0.7592    Cr
Cr      0.7592  0.27304  0.20857    Cr
Cr      0.7592  0.27304   0.7592    Cr
Cr      0.7592   0.7592  0.20857    Cr
Cr      0.7592   0.7592  0.27304    Cr
C      0.76034  0.32518  0.43349     C
C      0.76034  0.32518  0.48099     C
C      0.76034  0.43349  0.32518     C
C      0.76034  0.43349  0.48099     C
C      0.76034  0.48099  0.32518     C
C      0.76034  0.48099  0.43349     C
O      0.76118  0.57997  0.80445     O
O      0.76118  0.57997   0.8544     O
O      0.76118  0.80445  0.57997     O
O      0.76118  0.80445   0.8544     O
O      0.76118   0.8544  0.57997     O
O      0.76118   0.8544  0.80445     O
H      0.76328  0.27027  0.33456     H
H      0.76328  0.27027  0.63189     H
H      0.76328  0.33456  0.27027     H
H      0.76328  0.33456  0.63189     H
H      0.76328  0.63189  0.27027     H
H      0.76328  0.63189  0.33456     H
C      0.76349  0.52158  0.81042     C
C      0.76349  0.52158  0.90451     C
C      0.76349  0.81042  0.52158     C
C      0.76349  0.81042  0.90451     C
C      0.76349  0.90451  0.52158     C
C      0.76349  0.90451  0.81042     C
O      0.76431  0.33297  0.38265     O
O      0.76431  0.33297  0.52007     O
O      0.76431  0.38265  0.33297     O
O      0.76431  0.38265  0.52007     O
O      0.76431  0.52007  0.33297     O
O      0.76431  0.52007  0.38265     O
C      0.76604  0.23024  0.31205     C
C      0.76604  0.23024  0.69167     C
C      0.76604  0.31205  0.23024     C
C      0.76604  0.31205  0.69167     C
C      0.76604  0.69167  0.23024     C
C      0.76604  0.69167  0.31205     C
C      0.76901  0.48966  0.81651     C
C      0.76901  0.48966  0.92482     C
C      0.76901  0.81651  0.48966     C
C      0.76901  0.81651  0.92482     C
C      0.76901  0.92482  0.48966     C
C      0.76901  0.92482  0.81651     C
O      0.77167  0.20927  0.30182     O
O      0.77167  0.20927  0.71724     O
O      0.77167  0.30182  0.20927     O
O      0.77167  0.30182  0.71724     O
O      0.77167  0.71724  0.20927     O
O      0.77167  0.71724  0.30182     O
Cr     0.77589  0.33975  0.33975    Cr
Cr     0.77589  0.33975  0.54461    Cr
Cr     0.77589  0.54461  0.33975    Cr
C      0.77604  0.31548  0.45424     C
C      0.77604  0.45424  0.31548     C
C      0.77604  0.45424  0.45424     C
C      0.77863   0.3194   0.4025     C
C      0.77863   0.3194  0.49947     C
C      0.77863   0.4025   0.3194     C
C      0.77863   0.4025  0.49947     C
C      0.77863  0.49947   0.3194     C
C      0.77863  0.49947   0.4025     C
O      0.78247  0.29786  0.34731     O
O      0.78247  0.29786  0.57236     O
O      0.78247  0.34731  0.29786     O
O      0.78247  0.34731  0.57236     O
O      0.78247  0.57236  0.29786     O
O      0.78247  0.57236  0.34731     O
C      0.78249  0.24792  0.33823     C
C      0.78249  0.24792  0.63136     C
C      0.78249  0.33823  0.24792     C
C      0.78249  0.33823  0.63136     C
C      0.78249  0.63136  0.24792     C
C      0.78249  0.63136  0.33823     C
O      0.78283  0.64495  0.73951     O
O      0.78283  0.64495  0.83271     O
O      0.78283  0.73951  0.64495     O
O      0.78283  0.73951  0.83271     O
O      0.78283  0.83271  0.64495     O
O      0.78283  0.83271  0.73951     O
C       0.7829  0.56809   0.7829     C
C       0.7829  0.56809  0.86611     C
C       0.7829   0.7829  0.56809     C
C       0.7829   0.7829  0.86611     C
C       0.7829  0.86611  0.56809     C
C       0.7829  0.86611   0.7829     C
C      0.78456  0.53752  0.78456     C
C      0.78456  0.53752  0.89336     C
C      0.78456  0.78456  0.53752     C
C      0.78456  0.78456  0.89336     C
C      0.78456  0.89336  0.53752     C
C      0.78456  0.89336  0.78456     C
C       0.7865  0.22392  0.32917     C
C       0.7865  0.22392  0.66041     C
C       0.7865  0.32917  0.22392     C
C       0.7865  0.32917  0.66041     C
C       0.7865  0.66041  0.22392     C
C       0.7865  0.66041  0.32917     C
O      0.78978  0.39181  0.88755     O
O      0.78978  0.39181  0.93086     O
O      0.78978  0.88755  0.39181     O
O      0.78978  0.88755  0.93086     O
O      0.78978  0.93086  0.39181     O
O      0.78978  0.93086  0.88755     O
C      0.79576  0.47396  0.79576     C
C      0.79576  0.47396  0.93452     C
C      0.79576  0.79576  0.47396     C
C      0.79576  0.79576  0.93452     C
C      0.79576  0.93452  0.47396     C
C      0.79576  0.93452  0.79576     C
O      0.79585  0.61245  0.79585     O
O      0.79585  0.79585  0.61245     O
O      0.79585  0.79585  0.79585     O
O      0.80302  0.20326  0.24643     O
O      0.80302  0.20326  0.74729     O
O      0.80302  0.24643  0.20326     O
O      0.80302  0.24643  0.74729     O
O      0.80302  0.74729  0.20326     O
O      0.80302  0.74729  0.24643     O
C       0.8043  0.27156  0.35305     C
C       0.8043  0.27156  0.57109     C
C       0.8043  0.35305  0.27156     C
C       0.8043  0.35305  0.57109     C
C       0.8043  0.57109  0.27156     C
C       0.8043  0.57109  0.35305     C
C      0.80443  0.38877   0.9034     C
C      0.80443   0.9034  0.38877     C
C      0.80443   0.9034   0.9034     C
O      0.80445  0.57997  0.76118     O
O      0.80445  0.57997   0.8544     O
O      0.80445  0.76118  0.57997     O
O      0.80445  0.76118   0.8544     O
O      0.80445   0.8544  0.57997     O
O      0.80445   0.8544  0.76118     O
C      0.80447  0.24425  0.34975     C
C      0.80447  0.24425  0.60153     C
C      0.80447  0.34975  0.24425     C
C      0.80447  0.34975  0.60153     C
C      0.80447  0.60153  0.24425     C
C      0.80447  0.60153  0.34975     C
O      0.80799  0.30293  0.39631     O
O      0.80799  0.30293  0.49277     O
O      0.80799  0.39631  0.30293     O
O      0.80799  0.39631  0.49277     O
O      0.80799  0.49277  0.30293     O
O      0.80799  0.49277  0.39631     O
C      0.81042  0.52158  0.76349     C
C      0.81042  0.52158  0.90451     C
C      0.81042  0.76349  0.52158     C
C      0.81042  0.76349  0.90451     C
C      0.81042  0.90451  0.52158     C
C      0.81042  0.90451  0.76349     C
C      0.81316  0.19599  0.33215     C
C      0.81316  0.19599   0.6587     C
C      0.81316  0.33215  0.19599     C
C      0.81316  0.33215   0.6587     C
C      0.81316   0.6587  0.19599     C
C      0.81316   0.6587  0.33215     C
C      0.81651  0.48966  0.76901     C
C      0.81651  0.48966  0.92482     C
C      0.81651  0.76901  0.48966     C
C      0.81651  0.76901  0.92482     C
C      0.81651  0.92482  0.48966     C
C      0.81651  0.92482  0.76901     C
Cr     0.81744  0.61245  0.75267    Cr
Cr     0.81744  0.61245  0.81744    Cr
Cr     0.81744  0.75267  0.61245    Cr
Cr     0.81744  0.75267  0.81744    Cr
Cr     0.81744  0.81744  0.61245    Cr
Cr     0.81744  0.81744  0.75267    Cr
H      0.81766  0.17806  0.32385     H
H      0.81766  0.17806  0.68043     H
H      0.81766  0.32385  0.17806     H
H      0.81766  0.32385  0.68043     H
H      0.81766  0.68043  0.17806     H
H      0.81766  0.68043  0.32385     H
C      0.81799  0.22086  0.22086     C
C      0.81799  0.22086  0.74029     C
C      0.81799  0.74029  0.22086     C
O       0.8199   0.3314   0.3314     O
O       0.8199   0.3314   0.5173     O
O       0.8199   0.5173   0.3314     O
O      0.82704  0.26799   0.3595     O
O      0.82704  0.26799  0.54547     O
O      0.82704   0.3595  0.26799     O
O      0.82704   0.3595  0.54547     O
O      0.82704  0.54547  0.26799     O
O      0.82704  0.54547   0.3595     O
H      0.82719  0.53337  0.74397     H
H      0.82719  0.53337  0.89547     H
H      0.82719  0.74397  0.53337     H
H      0.82719  0.74397  0.89547     H
H      0.82719  0.89547  0.53337     H
H      0.82719  0.89547  0.74397     H
C      0.83007  0.21586  0.35306     C
C      0.83007  0.21586  0.60101     C
C      0.83007  0.35306  0.21586     C
C      0.83007  0.35306  0.60101     C
C      0.83007  0.60101  0.21586     C
C      0.83007  0.60101  0.35306     C
O      0.83271  0.64495  0.73951     O
O      0.83271  0.64495  0.78283     O
O      0.83271  0.73951  0.64495     O
O      0.83271  0.73951  0.78283     O
O      0.83271  0.78283  0.64495     O
O      0.83271  0.78283  0.73951     O
C      0.83534  0.19207  0.34353     C
C      0.83534  0.19207  0.62906     C
C      0.83534  0.34353  0.19207     C
C      0.83534  0.34353  0.62906     C
C      0.83534  0.62906  0.19207     C
C      0.83534  0.62906  0.34353     C
C      0.83639  0.65681   0.7534     C
C      0.83639   0.7534  0.65681     C
C      0.83639   0.7534   0.7534     C
C      0.83992  0.38362  0.88823     C
C      0.83992  0.88823  0.38362     C
C      0.83992  0.88823  0.88823     C
Cr     0.84189    0.295  0.35945    Cr
Cr     0.84189    0.295  0.50366    Cr
Cr     0.84189  0.35945    0.295    Cr
Cr     0.84189  0.35945  0.50366    Cr
Cr     0.84189  0.50366    0.295    Cr
Cr     0.84189  0.50366  0.35945    Cr
C      0.84255  0.70352  0.70352     C
C      0.84255  0.70352  0.75042     C
C      0.84255  0.75042  0.70352     C
C      0.84281  0.68737  0.73491     C
C      0.84281  0.73491  0.68737     C
C      0.84281  0.73491  0.73491     C
H      0.84737  0.21315  0.36109     H
H      0.84737  0.21315  0.57839     H
H      0.84737  0.36109  0.21315     H
H      0.84737  0.36109  0.57839     H
H      0.84737  0.57839  0.21315     H
H      0.84737  0.57839  0.36109     H
C       0.8475  0.47137  0.75053     C
C       0.8475  0.47137   0.9306     C
C       0.8475  0.75053  0.47137     C
C       0.8475  0.75053   0.9306     C
C       0.8475   0.9306  0.47137     C
C       0.8475   0.9306  0.75053     C
O      0.85369  0.44201  0.75723     O
O      0.85369  0.44201  0.94707     O
O      0.85369  0.75723  0.44201     O
O      0.85369  0.75723  0.94707     O
O      0.85369  0.94707  0.44201     O
O      0.85369  0.94707  0.75723     O
C      0.85434  0.21203  0.21203     C
C      0.85434  0.21203   0.7216     C
C      0.85434   0.7216  0.21203     C
O       0.8544  0.57997  0.76118     O
O       0.8544  0.57997  0.80445     O
O       0.8544  0.76118  0.57997     O
O       0.8544  0.76118  0.80445     O
O       0.8544  0.80445  0.57997     O
O       0.8544  0.80445  0.76118     O
C      0.85632   0.3839  0.85632     C
C      0.85632   0.3839  0.90346     C
C      0.85632  0.85632   0.3839     C
C      0.85632  0.85632  0.90346     C
C      0.85632  0.90346   0.3839     C
C      0.85632  0.90346  0.85632     C
O      0.85819  0.31914  0.36245     O
O      0.85819  0.31914  0.46022     O
O      0.85819  0.36245  0.31914     O
O      0.85819  0.36245  0.46022     O
O      0.85819  0.46022  0.31914     O
O      0.85819  0.46022  0.36245     O
H      0.85874  0.16996  0.25351     H
H      0.85874  0.16996  0.71779     H
H      0.85874  0.25351  0.16996     H
H      0.85874  0.25351  0.71779     H
H      0.85874  0.71779  0.16996     H
H      0.85874  0.71779  0.25351     H
C      0.86123   0.3466   0.3466     C
C      0.86123   0.3466  0.44557     C
C      0.86123  0.44557   0.3466     C
C       0.8661  0.34654  0.39368     C
C       0.8661  0.39368  0.34654     C
C       0.8661  0.39368  0.39368     C
C      0.86611  0.56809   0.7829     C
C      0.86611   0.7829  0.56809     C
C      0.86611   0.7829   0.7829     C
C      0.86614   0.1654  0.34147     C
C      0.86614   0.1654  0.62699     C
C      0.86614  0.34147   0.1654     C
C      0.86614  0.34147  0.62699     C
C      0.86614  0.62699   0.1654     C
C      0.86614  0.62699  0.34147     C
C      0.86638  0.36177  0.36177     C
C      0.86638  0.36177  0.41008     C
C      0.86638  0.41008  0.36177     C
O      0.86735  0.48569  0.72993     O
O      0.86735  0.48569  0.91703     O
O      0.86735  0.72993  0.48569     O
O      0.86735  0.72993  0.91703     O
O      0.86735  0.91703  0.48569     O
O      0.86735  0.91703  0.72993     O
O      0.87024  0.14441   0.3326     O
O      0.87024  0.14441  0.65275     O
O      0.87024   0.3326  0.14441     O
O      0.87024   0.3326  0.65275     O
O      0.87024  0.65275  0.14441     O
O      0.87024  0.65275   0.3326     O
C      0.87136  0.18525  0.23251     C
C      0.87136  0.18525  0.71088     C
C      0.87136  0.23251  0.18525     C
C      0.87136  0.23251  0.71088     C
C      0.87136  0.71088  0.18525     C
C      0.87136  0.71088  0.23251     C
O       0.8785  0.28245  0.32559     O
O       0.8785  0.28245  0.51346     O
O       0.8785  0.32559  0.28245     O
O       0.8785  0.32559  0.51346     O
O       0.8785  0.51346  0.28245     O
O       0.8785  0.51346  0.32559     O
O      0.88752  0.16534  0.34727     O
O      0.88752  0.16534  0.59987     O
O      0.88752  0.34727  0.16534     O
O      0.88752  0.34727  0.59987     O
O      0.88752  0.59987  0.16534     O
O      0.88752  0.59987  0.34727     O
O      0.88755  0.39181  0.78978     O
O      0.88755  0.39181  0.93086     O
O      0.88755  0.78978  0.39181     O
O      0.88755  0.78978  0.93086     O
O      0.88755  0.93086  0.39181     O
O      0.88755  0.93086  0.78978     O
C      0.88823  0.38362  0.83992     C
C      0.88823  0.38362  0.88823     C
C      0.88823  0.83992  0.38362     C
C      0.88823  0.83992  0.88823     C
C      0.88823  0.88823  0.38362     C
C      0.88823  0.88823  0.83992     C
H      0.88891  0.03685  0.40263     H
H      0.88891  0.03685  0.67161     H
H      0.88891  0.40263  0.03685     H
H      0.88891  0.40263  0.67161     H
H      0.88891  0.67161  0.03685     H
H      0.88891  0.67161  0.40263     H
C       0.8898  0.29572  0.29572     C
C       0.8898  0.29572  0.51876     C
C       0.8898  0.51876  0.29572     C
O       0.8905  0.42296  0.70453     O
O       0.8905  0.42296  0.98201     O
O       0.8905  0.70453  0.42296     O
O       0.8905  0.70453  0.98201     O
O       0.8905  0.98201  0.42296     O
O       0.8905  0.98201  0.70453     O
Cr     0.89055  0.40811  0.74634    Cr
Cr     0.89055  0.40811    0.955    Cr
Cr     0.89055  0.74634  0.40811    Cr
Cr     0.89055  0.74634    0.955    Cr
Cr     0.89055    0.955  0.40811    Cr
Cr     0.89055    0.955  0.74634    Cr
C      0.89336  0.53752  0.78456     C
C      0.89336  0.78456  0.53752     C
C      0.89336  0.78456  0.78456     C
H      0.89547  0.53337  0.74397     H
H      0.89547  0.53337  0.82719     H
H      0.89547  0.74397  0.53337     H
H      0.89547  0.74397  0.82719     H
H      0.89547  0.82719  0.53337     H
H      0.89547  0.82719  0.74397     H
C      0.89694  0.03414  0.41993     C
C      0.89694  0.03414  0.64899     C
C      0.89694  0.41993  0.03414     C
C      0.89694  0.41993  0.64899     C
C      0.89694  0.64899  0.03414     C
C      0.89694  0.64899  0.41993     C
C      0.89695   0.4457  0.67891     C
C      0.89695   0.4457  0.97844     C
C      0.89695  0.67891   0.4457     C
C      0.89695  0.67891  0.97844     C
C      0.89695  0.97844   0.4457     C
C      0.89695  0.97844  0.67891     C
C      0.90025  0.00575  0.44553     C
C      0.90025  0.00575  0.64847     C
C      0.90025  0.44553  0.00575     C
C      0.90025  0.44553  0.64847     C
C      0.90025  0.64847  0.00575     C
C      0.90025  0.64847  0.44553     C
O      0.90252  0.13658  0.27832     O
O      0.90252  0.13658  0.68258     O
O      0.90252  0.27832  0.13658     O
O      0.90252  0.27832  0.68258     O
O      0.90252  0.68258  0.13658     O
O      0.90252  0.68258  0.27832     O
O      0.90269  0.46753  0.67764     O
O      0.90269  0.46753  0.95214     O
O      0.90269  0.67764  0.46753     O
O      0.90269  0.67764  0.95214     O
O      0.90269  0.95214  0.46753     O
O      0.90269  0.95214  0.67764     O
O      0.90273  0.08466  0.36248     O
O      0.90273  0.08466  0.65013     O
O      0.90273  0.36248  0.08466     O
O      0.90273  0.36248  0.65013     O
O      0.90273  0.65013  0.08466     O
O      0.90273  0.65013  0.36248     O
C       0.9034  0.38877  0.80443     C
C       0.9034  0.38877   0.9034     C
C       0.9034  0.80443  0.38877     C
C       0.9034  0.80443   0.9034     C
C       0.9034   0.9034  0.38877     C
C       0.9034   0.9034  0.80443     C
C      0.90346   0.3839  0.85632     C
C      0.90346  0.85632   0.3839     C
C      0.90346  0.85632  0.85632     C
C      0.90378  0.17875  0.22742     C
C      0.90378  0.17875  0.69005     C
C      0.90378  0.22742  0.17875     C
C      0.90378  0.22742  0.69005     C
C      0.90378  0.69005  0.17875     C
C      0.90378  0.69005  0.22742     C
Cr     0.90448  0.11072  0.32011    Cr
Cr     0.90448  0.11072  0.66469    Cr
Cr     0.90448  0.32011  0.11072    Cr
Cr     0.90448  0.32011  0.66469    Cr
Cr     0.90448  0.66469  0.11072    Cr
Cr     0.90448  0.66469  0.32011    Cr
C      0.90451  0.52158  0.76349     C
C      0.90451  0.52158  0.81042     C
C      0.90451  0.76349  0.52158     C
C      0.90451  0.76349  0.81042     C
C      0.90451  0.81042  0.52158     C
C      0.90451  0.81042  0.76349     C
C      0.90647  0.05793  0.41466     C
C      0.90647  0.05793  0.62094     C
C      0.90647  0.41466  0.05793     C
C      0.90647  0.41466  0.62094     C
C      0.90647  0.62094  0.05793     C
C      0.90647  0.62094  0.41466     C
C      0.90853   0.0846  0.38386     C
C      0.90853   0.0846  0.62301     C
C      0.90853  0.38386   0.0846     C
C      0.90853  0.38386  0.62301     C
C      0.90853  0.62301   0.0846     C
C      0.90853  0.62301  0.38386     C
Cr     0.91025  0.47411  0.70539    Cr
Cr     0.91025  0.47411  0.91025    Cr
Cr     0.91025  0.70539  0.47411    Cr
Cr     0.91025  0.70539  0.91025    Cr
Cr     0.91025  0.91025  0.47411    Cr
Cr     0.91025  0.91025  0.70539    Cr
C      0.91177  0.00208  0.46751     C
C      0.91177  0.00208  0.61864     C
C      0.91177  0.46751  0.00208     C
C      0.91177  0.46751  0.61864     C
C      0.91177  0.61864  0.00208     C
C      0.91177  0.61864  0.46751     C
H      0.91544  0.48672  0.61811     H
H      0.91544  0.48672  0.97973     H
H      0.91544  0.61811  0.48672     H
H      0.91544  0.61811  0.97973     H
H      0.91544  0.97973  0.48672     H
H      0.91544  0.97973  0.61811     H
C      0.91617  0.27511  0.27511     C
C      0.91617  0.27511  0.53361     C
C      0.91617  0.53361  0.27511     C
O      0.91703  0.48569  0.72993     O
O      0.91703  0.48569  0.86735     O
O      0.91703  0.72993  0.48569     O
O      0.91703  0.72993  0.86735     O
O      0.91703  0.86735  0.48569     O
O      0.91703  0.86735  0.72993     O
O       0.9174  0.10559  0.37976     O
O       0.9174  0.10559  0.59725     O
O       0.9174  0.37976  0.10559     O
O       0.9174  0.37976  0.59725     O
O       0.9174  0.59725  0.10559     O
O       0.9174  0.59725  0.37976     O
C      0.91785  0.05401  0.43684     C
C      0.91785  0.05401   0.5913     C
C      0.91785  0.43684  0.05401     C
C      0.91785  0.43684   0.5913     C
C      0.91785   0.5913  0.05401     C
C      0.91785   0.5913  0.43684     C
H      0.91838  0.23093  0.31408     H
H      0.91838  0.23093  0.53661     H
H      0.91838  0.31408  0.23093     H
H      0.91838  0.31408  0.53661     H
H      0.91838  0.53661  0.23093     H
H      0.91838  0.53661  0.31408     H
O       0.9186   0.4301   0.7327     O
O       0.9186   0.4301   0.9186     O
O       0.9186   0.7327   0.4301     O
O       0.9186   0.7327   0.9186     O
O       0.9186   0.9186   0.4301     O
O       0.9186   0.9186   0.7327     O
C      0.91913  0.20049  0.20049     C
C      0.91913  0.20049  0.67989     C
C      0.91913  0.67989  0.20049     C
C      0.91943  0.15219  0.25281     C
C      0.91943  0.15219  0.67557     C
C      0.91943  0.25281  0.15219     C
C      0.91943  0.25281  0.67557     C
C      0.91943  0.67557  0.15219     C
C      0.91943  0.67557  0.25281     C
C      0.92083  0.02608   0.4635     C
C      0.92083  0.02608  0.58959     C
C      0.92083   0.4635  0.02608     C
C      0.92083   0.4635  0.58959     C
C      0.92083  0.58959  0.02608     C
C      0.92083  0.58959   0.4635     C
O      0.92441   0.3715  0.73654     O
O      0.92441   0.3715  0.96755     O
O      0.92441  0.73654   0.3715     O
O      0.92441  0.73654  0.96755     O
O      0.92441  0.96755   0.3715     O
O      0.92441  0.96755  0.73654     O
C      0.92482  0.48966  0.76901     C
C      0.92482  0.48966  0.81651     C
C      0.92482  0.76901  0.48966     C
C      0.92482  0.76901  0.81651     C
C      0.92482  0.81651  0.48966     C
C      0.92482  0.81651  0.76901     C
H      0.92615  0.07194  0.43234     H
H      0.92615  0.07194  0.56957     H
H      0.92615  0.43234  0.07194     H
H      0.92615  0.43234  0.56957     H
H      0.92615  0.56957  0.07194     H
H      0.92615  0.56957  0.43234     H
C      0.92723  0.24154  0.28852     C
C      0.92723  0.24154  0.54271     C
C      0.92723  0.28852  0.24154     C
C      0.92723  0.28852  0.54271     C
C      0.92723  0.54271  0.24154     C
C      0.92723  0.54271  0.28852     C
Cr     0.92989  0.13928  0.34552    Cr
Cr     0.92989  0.13928  0.58531    Cr
Cr     0.92989  0.34552  0.13928    Cr
Cr     0.92989  0.34552  0.58531    Cr
Cr     0.92989  0.58531  0.13928    Cr
Cr     0.92989  0.58531  0.34552    Cr
C       0.9306  0.47137  0.75053     C
C       0.9306  0.47137   0.8475     C
C       0.9306  0.75053  0.47137     C
C       0.9306  0.75053   0.8475     C
C       0.9306   0.8475  0.47137     C
C       0.9306   0.8475  0.75053     C
O      0.93086  0.39181  0.78978     O
O      0.93086  0.39181  0.88755     O
O      0.93086  0.78978  0.39181     O
O      0.93086  0.78978  0.88755     O
O      0.93086  0.88755  0.39181     O
O      0.93086  0.88755  0.78978     O
C      0.93452  0.47396  0.79576     C
C      0.93452  0.79576  0.47396     C
C      0.93452  0.79576  0.79576     C
O      0.93483  0.07436  0.30913     O
O      0.93483  0.07436  0.68168     O
O      0.93483  0.30913  0.07436     O
O      0.93483  0.30913  0.68168     O
O      0.93483  0.68168  0.07436     O
O      0.93483  0.68168  0.30913     O
O      0.93579    0.125  0.31421     O
O      0.93579    0.125    0.625     O
O      0.93579  0.31421    0.125     O
O      0.93579  0.31421    0.625     O
O      0.93579    0.625    0.125     O
O      0.93579    0.625  0.31421     O
H      0.93592  0.01907  0.33162     H
H      0.93592  0.01907  0.71339     H
H      0.93592  0.33162  0.01907     H
H      0.93592  0.33162  0.71339     H
H      0.93592  0.71339  0.01907     H
H      0.93592  0.71339  0.33162     H
C      0.93795  0.01976  0.48396     C
C      0.93795  0.01976  0.55833     C
C      0.93795  0.48396  0.01976     C
C      0.93795  0.48396  0.55833     C
C      0.93795  0.55833  0.01976     C
C      0.93795  0.55833  0.48396     C
O      0.94087  0.17564  0.31517     O
O      0.94087  0.17564  0.56832     O
O      0.94087  0.31517  0.17564     O
O      0.94087  0.31517  0.56832     O
O      0.94087  0.56832  0.17564     O
O      0.94087  0.56832  0.31517     O
O      0.94308  0.50532  0.55889     O
O      0.94308  0.50532  0.99271     O
O      0.94308  0.55889  0.50532     O
O      0.94308  0.55889  0.99271     O
O      0.94308  0.99271  0.50532     O
O      0.94308  0.99271  0.55889     O
O      0.94707  0.44201  0.75723     O
O      0.94707  0.44201  0.85369     O
O      0.94707  0.75723  0.44201     O
O      0.94707  0.75723  0.85369     O
O      0.94707  0.85369  0.44201     O
O      0.94707  0.85369  0.75723     O
C       0.9476   0.2214  0.26953     C
C       0.9476   0.2214  0.56147     C
C       0.9476  0.26953   0.2214     C
C       0.9476  0.26953  0.56147     C
C       0.9476  0.56147   0.2214     C
C       0.9476  0.56147  0.26953     C
O      0.94807    0.147  0.24903     O
O      0.94807    0.147   0.6559     O
O      0.94807  0.24903    0.147     O
O      0.94807  0.24903   0.6559     O
O      0.94807   0.6559    0.147     O
O      0.94807   0.6559  0.24903     O
O      0.94818  0.04073  0.47833     O
O      0.94818  0.04073  0.53276     O
O      0.94818  0.47833  0.04073     O
O      0.94818  0.47833  0.53276     O
O      0.94818  0.53276  0.04073     O
O      0.94818  0.53276  0.47833     O
O      0.95214  0.46753  0.67764     O
O      0.95214  0.46753  0.90269     O
O      0.95214  0.67764  0.46753     O
O      0.95214  0.67764  0.90269     O
O      0.95214  0.90269  0.46753     O
O      0.95214  0.90269  0.67764     O
C       0.9536  0.18578  0.28528     C
C       0.9536  0.18578  0.57534     C
C       0.9536  0.28528  0.18578     C
C       0.9536  0.28528  0.57534     C
C       0.9536  0.57534  0.18578     C
C       0.9536  0.57534  0.28528     C
C      0.95428   0.3602  0.73124     C
C      0.95428   0.3602  0.95428     C
C      0.95428  0.73124   0.3602     C
C      0.95428  0.73124  0.95428     C
C      0.95428  0.95428   0.3602     C
C      0.95428  0.95428  0.73124     C
Cr       0.955  0.40811  0.74634    Cr
Cr       0.955  0.40811  0.89055    Cr
Cr       0.955  0.74634  0.40811    Cr
Cr       0.955  0.74634  0.89055    Cr
Cr       0.955  0.89055  0.40811    Cr
Cr       0.955  0.89055  0.74634    Cr
C      0.95709  0.23598  0.23598     C
C      0.95709  0.23598  0.57095     C
C      0.95709  0.57095  0.23598     C
C      0.96148  0.00846  0.32277     C
C      0.96148  0.00846  0.70729     C
C      0.96148  0.32277  0.00846     C
C      0.96148  0.32277  0.70729     C
C      0.96148  0.70729  0.00846     C
C      0.96148  0.70729  0.32277     C
C      0.96472  0.06422   0.2964     C
C      0.96472  0.06422  0.67466     C
C      0.96472   0.2964  0.06422     C
C      0.96472   0.2964  0.67466     C
C      0.96472  0.67466  0.06422     C
C      0.96472  0.67466   0.2964     C
O      0.96755   0.3715  0.73654     O
O      0.96755   0.3715  0.92441     O
O      0.96755  0.73654   0.3715     O
O      0.96755  0.73654  0.92441     O
O      0.96755  0.92441   0.3715     O
O      0.96755  0.92441  0.73654     O
O      0.96916  0.16727  0.26884     O
O      0.96916  0.16727  0.59473     O
O      0.96916  0.26884  0.16727     O
O      0.96916  0.26884  0.59473     O
O      0.96916  0.59473  0.16727     O
O      0.96916  0.59473  0.26884     O
Cr     0.96939  0.53061  0.53061    Cr
Cr     0.96939  0.53061  0.96939    Cr
Cr     0.96939  0.96939  0.53061    Cr
O      0.97168  0.11342  0.34748     O
O      0.97168  0.11342  0.56742     O
O      0.97168  0.34748  0.11342     O
O      0.97168  0.34748  0.56742     O
O      0.97168  0.56742  0.11342     O
O      0.97168  0.56742  0.34748     O
Cr     0.97307    0.125  0.27693    Cr
Cr     0.97307    0.125    0.625    Cr
Cr     0.97307  0.27693    0.125    Cr
Cr     0.97307  0.27693    0.625    Cr
Cr     0.97307    0.625    0.125    Cr
Cr     0.97307    0.625  0.27693    Cr
C      0.97489  0.33383  0.71639     C
C      0.97489  0.33383  0.97489     C
C      0.97489  0.71639  0.33383     C
C      0.97489  0.71639  0.97489     C
C      0.97489  0.97489  0.33383     C
C      0.97489  0.97489  0.71639     C
Cr     0.97696  0.04143   0.4908    Cr
Cr     0.97696   0.4908  0.04143    Cr
Cr     0.97696   0.4908   0.4908    Cr
C      0.97844   0.4457  0.67891     C
C      0.97844   0.4457  0.89695     C
C      0.97844  0.67891   0.4457     C
C      0.97844  0.67891  0.89695     C
C      0.97844  0.89695   0.4457     C
C      0.97844  0.89695  0.67891     C
H      0.97973  0.48672  0.61811     H
H      0.97973  0.48672  0.91544     H
H      0.97973  0.61811  0.48672     H
H      0.97973  0.61811  0.91544     H
H      0.97973  0.91544  0.48672     H
H      0.97973  0.91544  0.61811     H
C      0.98047   0.0286   0.3024     C
C      0.98047   0.0286  0.68853     C
C      0.98047   0.3024   0.0286     C
C      0.98047   0.3024  0.68853     C
C      0.98047  0.68853   0.0286     C
C      0.98047  0.68853   0.3024     C
O      0.98116  0.08273  0.28084     O
O      0.98116  0.08273  0.65527     O
O      0.98116  0.28084  0.08273     O
O      0.98116  0.28084  0.65527     O
O      0.98116  0.65527  0.08273     O
O      0.98116  0.65527  0.28084     O
O      0.98201  0.42296  0.70453     O
O      0.98201  0.42296   0.8905     O
O      0.98201  0.70453  0.42296     O
O      0.98201  0.70453   0.8905     O
O      0.98201   0.8905  0.42296     O
O      0.98201   0.8905  0.70453     O
O      0.99271  0.50532  0.55889     O
O      0.99271  0.50532  0.94308     O
O      0.99271  0.55889  0.50532     O
O      0.99271  0.55889  0.94308     O
O      0.99271  0.94308  0.50532     O
O      0.99271  0.94308  0.55889     O
O      0.99592  0.50408  0.50408     O
O      0.99592  0.50408  0.99592     O
O      0.99592  0.99592  0.50408     O
H      0.99649  0.08004  0.39126     H
H      0.99649  0.08004  0.53221     H
H      0.99649  0.39126  0.08004     H
H      0.99649  0.39126  0.53221     H
H      0.99649  0.53221  0.08004     H
H      0.99649  0.53221  0.39126     H
C      0.99719  0.09781  0.33057     C
C      0.99719  0.09781  0.57443     C
C      0.99719  0.33057  0.09781     C
C      0.99719  0.33057  0.57443     C
C      0.99719  0.57443  0.09781     C
C      0.99719  0.57443  0.33057     C
