data_I
_chemical_name_common  '/home/zhangsd/repos/MofS-CGCNN/ML/data/WS24/clean_cifs/UFASEA'
_cell_length_a 19.37400
_cell_length_b 14.88740
_cell_length_c 15.37210
_cell_angle_alpha 90.00000
_cell_angle_beta  111.75300
_cell_angle_gamma 90.00000
_space_group_name_H-M_alt      'P 1'


loop_
_space_group_symop_operation_xyz
  'x, y, z' 

loop_
_atom_site_label
_atom_site_fract_x
_atom_site_fract_y
_atom_site_fract_z
_atom_site_type_symbol
H          0.0   0.0041     0.25     H
C          0.0   0.0679     0.25     C
C          0.0   0.9321     0.75     C
H          0.0   0.9959     0.75     H
C       0.0406   0.2054   0.2722     C
C       0.0406   0.7946   0.7722     C
N       0.0636   0.1209   0.2835     N
N       0.0636   0.8791   0.7835     N
O       0.0772   0.3565   0.2981     O
O       0.0772   0.6435   0.7981     O
C       0.0951   0.2723   0.3049     C
C       0.0951   0.7277   0.8049     C
O       0.1611   0.2514   0.3426     O
O       0.1611   0.7486   0.8426     O
O       0.1652     0.48   0.7712     O
O       0.1652     0.52   0.2712     O
O       0.1711   0.3339   0.8056     O
O       0.1711   0.6661   0.3056     O
C       0.1712   0.3988   0.7525     C
C       0.1712   0.6012   0.2525     C
O       0.1717   0.0192   0.9222     O
O       0.1717   0.9808   0.4222     O
O       0.1719   0.1646    0.889     O
O       0.1719   0.8354    0.389     O
O       0.1741   0.4201   0.1134     O
O       0.1741   0.5799   0.6134     O
C       0.1748   0.0995    0.944     C
C       0.1748   0.9005    0.444     C
C       0.1768   0.3747   0.6628     C
C       0.1768   0.6253   0.1628     C
O       0.1775   0.4638   0.9813     O
O       0.1775   0.5362   0.4813     O
C       0.1776   0.4803   0.0633     C
C       0.1776   0.5197   0.5633     C
C       0.1795   0.4235   0.5861     C
C       0.1795   0.5765   0.0861     C
O       0.1802   0.0328   0.7224     O
O       0.1802   0.9672   0.2224     O
Cd     0.18033  0.18117  0.74532    Cd
Cd     0.18033  0.81883  0.24532    Cd
C       0.1804   0.1235   0.0381     C
C       0.1804   0.8765   0.5381     C
Cd     0.18064  0.31636  0.95543    Cd
Cd     0.18064  0.68364  0.45543    Cd
N       0.1815   0.2851   0.6438     N
N       0.1815   0.7149   0.1438     N
Cd     0.18191  0.08663  0.32166    Cd
Cd     0.18191  0.91337  0.82166    Cd
C       0.1832    0.019   0.6421     C
C       0.1832    0.981   0.1421     C
O       0.1836   0.0796   0.5906     O
O       0.1836   0.9204   0.0906     O
Cd     0.18446  0.41939  0.38636    Cd
Cd     0.18446  0.58061  0.88636    Cd
N       0.1853   0.2158   0.0621     N
N       0.1853   0.7842   0.5621     N
C       0.1861   0.2817   0.5606     C
C       0.1861   0.7183   0.0606     C
C       0.1862   0.0775   0.1186     C
C       0.1862   0.9225   0.6186     C
N       0.1866   0.3639   0.5227     N
N       0.1866   0.6361   0.0227     N
H       0.1888    0.227     0.53     H
H       0.1888    0.773     0.03     H
C       0.1924   0.2187   0.1501     C
C       0.1924   0.7813   0.6501     C
N       0.1931   0.1394   0.1901     N
N       0.1931   0.8606   0.6901     N
H       0.1968   0.2737   0.1832     H
H       0.1968   0.7263   0.6832     H
H       0.2967   0.4128   0.2703     H
H       0.2967   0.5872   0.7703     H
H       0.2975   0.0884   0.5446     H
H       0.2975   0.9116   0.0446     H
N       0.3032    0.108   0.4195     N
N       0.3032    0.892   0.9195     N
H       0.3045    0.099   0.9316     H
H       0.3045    0.901   0.4316     H
N       0.3046   0.3982   0.4029     N
N       0.3046   0.6018   0.9029     N
H       0.3053   0.3845   0.8796     H
H       0.3053   0.6155   0.3796     H
N       0.3122   0.3354   0.9983     N
N       0.3122   0.6646   0.4983     N
N       0.3135   0.1672   0.8239     N
N       0.3135   0.8328   0.3239     N
C       0.3304   0.1015   0.5133     C
C       0.3304   0.8985   0.0133     C
C       0.3311   0.4022   0.3321     C
C       0.3311   0.5978   0.8321     C
H       0.3336   0.3757   0.5368     H
H       0.3336   0.6243   0.0368     H
H       0.3348   0.1309   0.3137     H
H       0.3348   0.8691   0.8137     H
C        0.339   0.1229    0.907     C
C        0.339   0.8771    0.407     C
C       0.3394   0.3692   0.9404     C
C       0.3394   0.6308   0.4404     C
H        0.345   0.2265   0.7329     H
H        0.345   0.7735   0.2329     H
H       0.3457   0.2821   0.1255     H
H       0.3457   0.7179   0.6255     H
C       0.3519   0.3803   0.4875     C
C       0.3519   0.6197   0.9875     C
C       0.3527   0.1257     0.38     C
C       0.3527   0.8743     0.88     C
C       0.3627   0.1957   0.7912     C
C       0.3627   0.8043   0.2912     C
C       0.3629   0.3088   0.0811     C
C       0.3629   0.6912   0.5811     C
C       0.4036   0.1132   0.5643     C
C       0.4036   0.8868   0.0643     C
C       0.4047   0.3916   0.3455     C
C       0.4047   0.6084   0.8455     C
C        0.413   0.1121   0.9558     C
C        0.413   0.8879   0.4558     C
C       0.4136    0.385   0.9593     C
C       0.4136    0.615   0.4593     C
H       0.4202   0.1084   0.6306     H
H       0.4202   0.8916   0.1306     H
H       0.4207   0.3976   0.2945     H
H       0.4207   0.6024   0.7945     H
C        0.426   0.1366   0.4275     C
C        0.426   0.8634   0.9275     C
C       0.4282   0.3677   0.5091     C
C       0.4282   0.6323   0.0091     C
H       0.4293    0.083    0.015     H
H       0.4293    0.917    0.515     H
H       0.4295    0.413   0.9144     H
H       0.4295    0.587   0.4144     H
C       0.4395   0.3184    0.105     C
C       0.4395   0.6816    0.605     C
C       0.4398   0.1845   0.8352     C
C       0.4398   0.8155   0.3352     C
C       0.4537   0.1314   0.5255     C
C       0.4537   0.8686   0.0255     C
C       0.4553   0.3722   0.4346     C
C       0.4553   0.6278   0.9346     C
H       0.4585   0.1478   0.3951     H
H       0.4585   0.8522   0.8951     H
H        0.461   0.3566   0.5716     H
H        0.461   0.6434   0.0716     H
C       0.4631   0.3594   0.0438     C
C       0.4631   0.6406   0.5438     C
C       0.4652   0.1424   0.9212     C
C       0.4652   0.8576   0.4212     C
H        0.473   0.2051   0.8071     H
H        0.473   0.7949   0.3071     H
H       0.4737   0.2964    0.163     H
H       0.4737   0.7036    0.663     H
H       0.5263   0.2964    0.337     H
H       0.5263   0.7036    0.837     H
H        0.527   0.2051   0.6929     H
H        0.527   0.7949   0.1929     H
C       0.5348   0.1424   0.5788     C
C       0.5348   0.8576   0.0788     C
C       0.5369   0.3594   0.4562     C
C       0.5369   0.6406   0.9562     C
H        0.539   0.3566   0.9284     H
H        0.539   0.6434   0.4284     H
H       0.5415   0.1478   0.1049     H
H       0.5415   0.8522   0.6049     H
C       0.5447   0.3722   0.0654     C
C       0.5447   0.6278   0.5654     C
C       0.5463   0.1314   0.9745     C
C       0.5463   0.8686   0.4745     C
C       0.5602   0.1845   0.6648     C
C       0.5602   0.8155   0.1648     C
C       0.5605   0.3184    0.395     C
C       0.5605   0.6816    0.895     C
H       0.5705    0.413   0.5856     H
H       0.5705    0.587   0.0856     H
H       0.5707    0.083    0.485     H
H       0.5707    0.917    0.985     H
C       0.5718   0.3677   0.9909     C
C       0.5718   0.6323   0.4909     C
C        0.574   0.1366   0.0725     C
C        0.574   0.8634   0.5725     C
H       0.5793   0.3976   0.2055     H
H       0.5793   0.6024   0.7055     H
H       0.5798   0.1084   0.8694     H
H       0.5798   0.8916   0.3694     H
C       0.5864    0.385   0.5407     C
C       0.5864    0.615   0.0407     C
C        0.587   0.1121   0.5442     C
C        0.587   0.8879   0.0442     C
C       0.5953   0.3916   0.1545     C
C       0.5953   0.6084   0.6545     C
C       0.5964   0.1132   0.9357     C
C       0.5964   0.8868   0.4357     C
C       0.6371   0.3088   0.4189     C
C       0.6371   0.6912   0.9189     C
C       0.6373   0.1957   0.7088     C
C       0.6373   0.8043   0.2088     C
C       0.6473   0.1257     0.12     C
C       0.6473   0.8743     0.62     C
C       0.6481   0.3803   0.0125     C
C       0.6481   0.6197   0.5125     C
H       0.6543   0.2821   0.3745     H
H       0.6543   0.7179   0.8745     H
H        0.655   0.2265   0.7671     H
H        0.655   0.7735   0.2671     H
C       0.6606   0.3692   0.5596     C
C       0.6606   0.6308   0.0596     C
C        0.661   0.1229    0.593     C
C        0.661   0.8771    0.093     C
H       0.6652   0.1309   0.1863     H
H       0.6652   0.8691   0.6863     H
H       0.6664   0.3757   0.9632     H
H       0.6664   0.6243   0.4632     H
C       0.6689   0.4022   0.1679     C
C       0.6689   0.5978   0.6679     C
C       0.6696   0.1015   0.9867     C
C       0.6696   0.8985   0.4867     C
N       0.6865   0.1672   0.6761     N
N       0.6865   0.8328   0.1761     N
N       0.6878   0.3354   0.5017     N
N       0.6878   0.6646   0.0017     N
H       0.6947   0.3845   0.6204     H
H       0.6947   0.6155   0.1204     H
N       0.6954   0.3982   0.0971     N
N       0.6954   0.6018   0.5971     N
H       0.6955    0.099   0.5684     H
H       0.6955    0.901   0.0684     H
N       0.6968    0.108   0.0805     N
N       0.6968    0.892   0.5805     N
H       0.7025   0.0884   0.9554     H
H       0.7025   0.9116   0.4554     H
H       0.7033   0.4128   0.2297     H
H       0.7033   0.5872   0.7297     H
H       0.8032   0.2737   0.3168     H
H       0.8032   0.7263   0.8168     H
N       0.8069   0.1394   0.3099     N
N       0.8069   0.8606   0.8099     N
C       0.8076   0.2187   0.3499     C
C       0.8076   0.7813   0.8499     C
H       0.8112    0.227     0.97     H
H       0.8112    0.773     0.47     H
N       0.8134   0.3639   0.9773     N
N       0.8134   0.6361   0.4773     N
C       0.8138   0.0775   0.3814     C
C       0.8138   0.9225   0.8814     C
C       0.8139   0.2817   0.9394     C
C       0.8139   0.7183   0.4394     C
N       0.8147   0.2158   0.4379     N
N       0.8147   0.7842   0.9379     N
Cd     0.81554  0.41939  0.11364    Cd
Cd     0.81554  0.58061  0.61364    Cd
O       0.8164   0.0796   0.9094     O
O       0.8164   0.9204   0.4094     O
C       0.8168    0.019   0.8579     C
C       0.8168    0.981   0.3579     C
Cd     0.81809  0.08663  0.17834    Cd
Cd     0.81809  0.91337  0.67834    Cd
N       0.8185   0.2851   0.8562     N
N       0.8185   0.7149   0.3562     N
Cd     0.81936  0.31636  0.54457    Cd
Cd     0.81936  0.68364  0.04457    Cd
C       0.8196   0.1235   0.4619     C
C       0.8196   0.8765   0.9619     C
Cd     0.81967  0.18117  0.75468    Cd
Cd     0.81967  0.81883  0.25468    Cd
O       0.8198   0.0328   0.7776     O
O       0.8198   0.9672   0.2776     O
C       0.8205   0.4235   0.9139     C
C       0.8205   0.5765   0.4139     C
C       0.8224   0.4803   0.4367     C
C       0.8224   0.5197   0.9367     C
O       0.8225   0.4638   0.5187     O
O       0.8225   0.5362   0.0187     O
C       0.8232   0.3747   0.8372     C
C       0.8232   0.6253   0.3372     C
C       0.8252   0.0995    0.556     C
C       0.8252   0.9005    0.056     C
O       0.8259   0.4201   0.3866     O
O       0.8259   0.5799   0.8866     O
O       0.8281   0.1646    0.611     O
O       0.8281   0.8354    0.111     O
O       0.8283   0.0192   0.5778     O
O       0.8283   0.9808   0.0778     O
C       0.8288   0.3988   0.7475     C
C       0.8288   0.6012   0.2475     C
O       0.8289   0.3339   0.6944     O
O       0.8289   0.6661   0.1944     O
O       0.8348     0.48   0.7288     O
O       0.8348     0.52   0.2288     O
O       0.8389   0.2514   0.1574     O
O       0.8389   0.7486   0.6574     O
C       0.9049   0.2723   0.1951     C
C       0.9049   0.7277   0.6951     C
O       0.9228   0.3565   0.2019     O
O       0.9228   0.6435   0.7019     O
N       0.9364   0.1209   0.2165     N
N       0.9364   0.8791   0.7165     N
C       0.9594   0.2054   0.2278     C
C       0.9594   0.7946   0.7278     C
