data_I
_chemical_name_common  '/home/zhangsd/repos/MofS-CGCNN/ML/data/WS24/clean_cifs/UGOCAW'
_cell_length_a 31.30432
_cell_length_b 31.30432
_cell_length_c 31.30432
_cell_angle_alpha 60.00000
_cell_angle_beta  60.00000
_cell_angle_gamma 60.00000
_space_group_name_H-M_alt      'P 1'


loop_
_space_group_symop_operation_xyz
  'x, y, z' 

loop_
_atom_site_label
_atom_site_fract_x
_atom_site_fract_y
_atom_site_fract_z
_atom_site_type_symbol
Cu         0.0   0.2534   0.7466    Cu
Cu         0.0  0.33838  0.66162    Cu
Cu         0.0  0.66162  0.33838    Cu
Cu         0.0   0.7466   0.2534    Cu
O      0.00782  0.00782  0.17556     O
O      0.00782  0.00782   0.8088     O
O      0.00782  0.17556  0.00782     O
O      0.00782  0.17556   0.8088     O
O      0.00782   0.8088  0.00782     O
O      0.00782   0.8088  0.17556     O
O       0.0085   0.4075   0.5925     O
O       0.0085   0.4075   0.9915     O
O       0.0085   0.5925   0.4075     O
O       0.0085   0.5925   0.9915     O
O       0.0085   0.9915   0.4075     O
O       0.0085   0.9915   0.5925     O
O      0.01198  0.29142    0.771     O
O      0.01198  0.29142   0.9256     O
O      0.01198    0.771  0.29142     O
O      0.01198    0.771   0.9256     O
O      0.01198   0.9256  0.29142     O
O      0.01198   0.9256    0.771     O
H       0.0128   0.3032    0.842     H
H       0.0128    0.842   0.3032     H
H       0.0128    0.842    0.842     H
O      0.01286  0.36236  0.69896     O
O      0.01286  0.36236  0.92582     O
O      0.01286  0.69896  0.36236     O
O      0.01286  0.69896  0.92582     O
O      0.01286  0.92582  0.36236     O
O      0.01286  0.92582  0.69896     O
C      0.01552  0.33566   0.7458     C
C      0.01552  0.33566  0.90302     C
C      0.01552   0.7458  0.33566     C
C      0.01552   0.7458  0.90302     C
C      0.01552  0.90302  0.33566     C
C      0.01552  0.90302   0.7458     C
C      0.01904  0.33524  0.82286     C
C      0.01904  0.82286  0.33524     C
C      0.01904  0.82286  0.82286     C
H       0.0237   0.4281   0.7095     H
H       0.0237   0.4281   0.8387     H
H       0.0237   0.7095   0.4281     H
H       0.0237   0.7095   0.8387     H
H       0.0237   0.8387   0.4281     H
H       0.0237   0.8387   0.7095     H
C      0.02386  0.35968  0.76932     C
C      0.02386  0.35968  0.84714     C
C      0.02386  0.76932  0.35968     C
C      0.02386  0.76932  0.84714     C
C      0.02386  0.84714  0.35968     C
C      0.02386  0.84714  0.76932     C
C        0.024   0.4102    0.744     C
C        0.024   0.4102   0.8218     C
C        0.024    0.744   0.4102     C
C        0.024    0.744   0.8218     C
C        0.024   0.8218   0.4102     C
C        0.024   0.8218    0.744     C
C       0.0242   0.4342   0.7708     C
C       0.0242   0.7708   0.4342     C
C       0.0242   0.7708   0.7708     C
C       0.0364   0.4844   0.7396     C
C       0.0364   0.7396   0.4844     C
C       0.0364   0.7396   0.7396     C
H       0.0422      0.5   0.6668     H
H       0.0422      0.5    0.791     H
H       0.0422   0.6668      0.5     H
H       0.0422   0.6668    0.791     H
H       0.0422    0.791      0.5     H
H       0.0422    0.791   0.6668     H
C       0.0426   0.5104     0.69     C
C       0.0426   0.5104    0.757     C
C       0.0426     0.69   0.5104     C
C       0.0426     0.69    0.757     C
C       0.0426    0.757   0.5104     C
C       0.0426    0.757     0.69     C
H       0.0492   0.4168   0.7044     H
H       0.0492   0.4168   0.8296     H
H       0.0492   0.7044   0.4168     H
H       0.0492   0.7044   0.8296     H
H       0.0492   0.8296   0.4168     H
H       0.0492   0.8296   0.7044     H
N       0.0497   0.5543   0.6779     N
N       0.0497   0.5543   0.7181     N
N       0.0497   0.6779   0.5543     N
N       0.0497   0.6779   0.7181     N
N       0.0497   0.7181   0.5543     N
N       0.0497   0.7181   0.6779     N
Cu     0.05756    0.613    0.613    Cu
Cu     0.05756    0.613  0.71644    Cu
Cu     0.05756  0.71644    0.613    Cu
O       0.0674   0.6442   0.6442     O
O      0.07418  0.30104  0.63764     O
O      0.07418  0.30104  0.98714     O
O      0.07418  0.63764  0.30104     O
O      0.07418  0.63764  0.98714     O
O      0.07418  0.98714  0.30104     O
O      0.07418  0.98714  0.63764     O
O       0.0744    0.229  0.70858     O
O       0.0744    0.229  0.98802     O
O       0.0744  0.70858    0.229     O
O       0.0744  0.70858  0.98802     O
O       0.0744  0.98802    0.229     O
O       0.0744  0.98802  0.70858     O
N       0.0751   0.5009   0.6787     N
C       0.0751   0.5009   0.7453     C
C       0.0751   0.6787   0.5009     C
N       0.0751   0.6787   0.7453     N
N       0.0751   0.7453   0.5009     N
C       0.0751   0.7453   0.6787     C
H       0.0764   0.4898    0.655     H
H       0.0764   0.4898   0.7788     H
H       0.0764    0.655   0.4898     H
H       0.0764    0.655   0.7788     H
H       0.0764   0.7788   0.4898     H
H       0.0764   0.7788    0.655     H
O       0.0774   0.5688   0.5688     O
O       0.0774   0.5688    0.785     O
O       0.0774    0.785   0.5688     O
N       0.0824   0.5446   0.6666     N
N       0.0824   0.5446   0.7064     N
N       0.0824   0.6666   0.5446     N
N       0.0824   0.6666   0.7064     N
N       0.0824   0.7064   0.5446     N
N       0.0824   0.7064   0.6666     N
Cu     0.09204   0.6003   0.6003    Cu
Cu     0.09204   0.6003  0.70736    Cu
Cu     0.09204  0.70736   0.6003    Cu
C      0.09698   0.2542  0.66434     C
C      0.09698   0.2542  0.98448     C
C      0.09698  0.66434   0.2542     C
C      0.09698  0.66434  0.98448     C
C      0.09698  0.98448   0.2542     C
C      0.09698  0.98448  0.66434     C
O       0.0992   0.6336   0.6336     O
C      0.15286  0.23068  0.64032     C
C      0.15286  0.23068  0.97614     C
C      0.15286  0.64032  0.23068     C
C      0.15286  0.64032  0.97614     C
C      0.15286  0.97614  0.23068     C
C      0.15286  0.97614  0.64032     C
H        0.158    0.158   0.6968     H
H        0.158    0.158   0.9872     H
H        0.158   0.6968    0.158     H
H        0.158   0.6968   0.9872     H
H        0.158   0.9872    0.158     H
H        0.158   0.9872   0.6968     H
H       0.1613   0.2905   0.5719     H
H       0.1613   0.2905   0.9763     H
H       0.1613   0.5719   0.2905     H
H       0.1613   0.5719   0.9763     H
H       0.1613   0.9763   0.2905     H
H       0.1613   0.9763   0.5719     H
H       0.1704   0.2956   0.5832     H
H       0.1704   0.2956   0.9508     H
H       0.1704   0.5832   0.2956     H
H       0.1704   0.5832   0.9508     H
H       0.1704   0.9508   0.2956     H
H       0.1704   0.9508   0.5832     H
O      0.17556  0.00782  0.00782     O
O      0.17556  0.00782   0.8088     O
O      0.17556   0.8088  0.00782     O
C      0.17714  0.17714  0.66476     C
C      0.17714  0.17714  0.98096     C
C      0.17714  0.66476  0.17714     C
C      0.17714  0.66476  0.98096     C
C      0.17714  0.98096  0.17714     C
C      0.17714  0.98096  0.66476     C
C       0.1782    0.256   0.5898     C
C       0.1782    0.256    0.976     C
C       0.1782   0.5898    0.256     C
C       0.1782   0.5898    0.976     C
C       0.1782    0.976    0.256     C
C       0.1782    0.976   0.5898     C
O       0.1912  0.82444  0.99218     O
O       0.1912  0.99218  0.82444     O
O       0.1912  0.99218  0.99218     O
H        0.209   0.3332      0.5     H
H        0.209   0.3332   0.9578     H
H        0.209      0.5   0.3332     H
H        0.209      0.5   0.9578     H
H        0.209   0.9578   0.3332     H
H        0.209   0.9578      0.5     H
O        0.215   0.4312   0.4312     O
O        0.215   0.4312   0.9226     O
O        0.215   0.9226   0.4312     O
H       0.2212    0.345   0.5102     H
H       0.2212    0.345   0.9236     H
H       0.2212   0.5102    0.345     H
H       0.2212   0.5102   0.9236     H
H       0.2212   0.9236    0.345     H
H       0.2212   0.9236   0.5102     H
O        0.229   0.0744  0.70858     O
O        0.229   0.0744  0.98802     O
O        0.229  0.70858   0.0744     O
O        0.229  0.70858  0.98802     O
O        0.229  0.98802   0.0744     O
O        0.229  0.98802  0.70858     O
C       0.2292   0.2292   0.5658     C
C       0.2292   0.2292   0.9758     C
C       0.2292   0.5658   0.2292     C
C       0.2292   0.5658   0.9758     C
C       0.2292   0.9758   0.2292     C
C       0.2292   0.9758   0.5658     C
C      0.23068  0.15286  0.64032     C
C      0.23068  0.15286  0.97614     C
C      0.23068  0.64032  0.15286     C
C      0.23068  0.64032  0.97614     C
C      0.23068  0.97614  0.15286     C
C      0.23068  0.97614  0.64032     C
C        0.243     0.31   0.4896     C
C        0.243     0.31   0.9574     C
C        0.243   0.4896     0.31     C
C        0.243   0.4896   0.9574     C
C        0.243   0.9574     0.31     C
C        0.243   0.9574   0.4896     C
Cu      0.2534      0.0      0.0    Cu
Cu      0.2534      0.0   0.7466    Cu
Cu      0.2534   0.7466      0.0    Cu
C       0.2542  0.09698  0.66434     C
C       0.2542  0.09698  0.98448     C
C       0.2542  0.66434  0.09698     C
C       0.2542  0.66434  0.98448     C
C       0.2542  0.98448  0.09698     C
C       0.2542  0.98448  0.66434     C
C       0.2547   0.3213   0.4991     C
N       0.2547   0.3213   0.9249     N
N       0.2547   0.4991   0.3213     N
C       0.2547   0.4991   0.9249     C
C       0.2547   0.9249   0.3213     C
N       0.2547   0.9249   0.4991     N
C        0.256   0.1782   0.5898     C
C        0.256   0.1782    0.976     C
C        0.256   0.5898   0.1782     C
C        0.256   0.5898    0.976     C
C        0.256    0.976   0.1782     C
C        0.256    0.976   0.5898     C
C       0.2604   0.2604   0.5156     C
C       0.2604   0.2604   0.9636     C
C       0.2604   0.5156   0.2604     C
C       0.2604   0.5156   0.9636     C
C       0.2604   0.9636   0.2604     C
C       0.2604   0.9636   0.5156     C
N       0.2819   0.3221   0.4457     N
N       0.2819   0.3221   0.9503     N
N       0.2819   0.4457   0.3221     N
N       0.2819   0.4457   0.9503     N
N       0.2819   0.9503   0.3221     N
N       0.2819   0.9503   0.4457     N
Cu     0.28356    0.387    0.387    Cu
Cu     0.28356    0.387  0.94244    Cu
Cu     0.28356  0.94244    0.387    Cu
H       0.2905   0.1613   0.5719     H
H       0.2905   0.1613   0.9763     H
H       0.2905   0.5719   0.1613     H
H       0.2905   0.5719   0.9763     H
H       0.2905   0.9763   0.1613     H
H       0.2905   0.9763   0.5719     H
O      0.29142  0.01198    0.771     O
O      0.29142  0.01198   0.9256     O
O      0.29142    0.771  0.01198     O
O      0.29142    0.771   0.9256     O
O      0.29142   0.9256  0.01198     O
O      0.29142   0.9256    0.771     O
Cu     0.29264   0.3997   0.3997    Cu
Cu     0.29264   0.3997  0.90796    Cu
Cu     0.29264  0.90796   0.3997    Cu
N       0.2936   0.3334   0.4554     N
N       0.2936   0.3334   0.9176     N
N       0.2936   0.4554   0.3334     N
N       0.2936   0.4554   0.9176     N
N       0.2936   0.9176   0.3334     N
N       0.2936   0.9176   0.4554     N
H       0.2956   0.1704   0.5832     H
H       0.2956   0.1704   0.9508     H
H       0.2956   0.5832   0.1704     H
H       0.2956   0.5832   0.9508     H
H       0.2956   0.9508   0.1704     H
H       0.2956   0.9508   0.5832     H
O      0.30104  0.07418  0.63764     O
O      0.30104  0.07418  0.98714     O
O      0.30104  0.63764  0.07418     O
O      0.30104  0.63764  0.98714     O
O      0.30104  0.98714  0.07418     O
O      0.30104  0.98714  0.63764     O
H       0.3032   0.0128    0.842     H
H       0.3032    0.842   0.0128     H
H       0.3032    0.842    0.842     H
C         0.31    0.243   0.4896     C
C         0.31    0.243   0.9574     C
C         0.31   0.4896    0.243     C
C         0.31   0.4896   0.9574     C
C         0.31   0.9574    0.243     C
C         0.31   0.9574   0.4896     C
N       0.3213   0.2547   0.4991     N
C       0.3213   0.2547   0.9249     C
C       0.3213   0.4991   0.2547     C
N       0.3213   0.4991   0.9249     N
N       0.3213   0.9249   0.2547     N
C       0.3213   0.9249   0.4991     C
N       0.3221   0.2819   0.4457     N
N       0.3221   0.2819   0.9503     N
N       0.3221   0.4457   0.2819     N
N       0.3221   0.4457   0.9503     N
N       0.3221   0.9503   0.2819     N
N       0.3221   0.9503   0.4457     N
H       0.3332    0.209      0.5     H
H       0.3332    0.209   0.9578     H
H       0.3332      0.5    0.209     H
H       0.3332      0.5   0.9578     H
H       0.3332   0.9578    0.209     H
H       0.3332   0.9578      0.5     H
N       0.3334   0.2936   0.4554     N
N       0.3334   0.2936   0.9176     N
N       0.3334   0.4554   0.2936     N
N       0.3334   0.4554   0.9176     N
N       0.3334   0.9176   0.2936     N
N       0.3334   0.9176   0.4554     N
C      0.33524  0.01904  0.82286     C
C      0.33524  0.82286  0.01904     C
C      0.33524  0.82286  0.82286     C
C      0.33566  0.01552   0.7458     C
C      0.33566  0.01552  0.90302     C
C      0.33566   0.7458  0.01552     C
C      0.33566   0.7458  0.90302     C
C      0.33566  0.90302  0.01552     C
C      0.33566  0.90302   0.7458     C
Cu     0.33838      0.0      0.0    Cu
Cu     0.33838      0.0  0.66162    Cu
Cu     0.33838  0.66162      0.0    Cu
H        0.345   0.2212   0.5102     H
H        0.345   0.2212   0.9236     H
H        0.345   0.5102   0.2212     H
H        0.345   0.5102   0.9236     H
H        0.345   0.9236   0.2212     H
H        0.345   0.9236   0.5102     H
O       0.3558   0.3558   0.3558     O
O       0.3558   0.3558   0.9326     O
O       0.3558   0.9326   0.3558     O
C      0.35968  0.02386  0.76932     C
C      0.35968  0.02386  0.84714     C
C      0.35968  0.76932  0.02386     C
C      0.35968  0.76932  0.84714     C
C      0.35968  0.84714  0.02386     C
C      0.35968  0.84714  0.76932     C
O      0.36236  0.01286  0.69896     O
O      0.36236  0.01286  0.92582     O
O      0.36236  0.69896  0.01286     O
O      0.36236  0.69896  0.92582     O
O      0.36236  0.92582  0.01286     O
O      0.36236  0.92582  0.69896     O
O       0.3664   0.3664   0.3664     O
O       0.3664   0.3664   0.9008     O
O       0.3664   0.9008   0.3664     O
Cu       0.387  0.28356    0.387    Cu
Cu       0.387  0.28356  0.94244    Cu
Cu       0.387    0.387  0.28356    Cu
Cu       0.387    0.387  0.94244    Cu
Cu       0.387  0.94244  0.28356    Cu
Cu       0.387  0.94244    0.387    Cu
Cu      0.3997  0.29264   0.3997    Cu
Cu      0.3997  0.29264  0.90796    Cu
Cu      0.3997   0.3997  0.29264    Cu
Cu      0.3997   0.3997  0.90796    Cu
Cu      0.3997  0.90796  0.29264    Cu
Cu      0.3997  0.90796   0.3997    Cu
C      0.40292  0.04252  0.74068     C
C      0.40292  0.04252  0.81388     C
C      0.40292  0.74068  0.04252     C
C      0.40292  0.74068  0.81388     C
C      0.40292  0.81388  0.04252     C
C      0.40292  0.81388  0.74068     C
O       0.4075   0.0085   0.5925     O
O       0.4075   0.0085   0.9915     O
O       0.4075   0.5925   0.0085     O
H       0.4168   0.0492   0.7044     H
H       0.4168   0.0492   0.8296     H
H       0.4168   0.7044   0.0492     H
H       0.4168   0.7044   0.8296     H
H       0.4168   0.8296   0.0492     H
H       0.4168   0.8296   0.7044     H
C       0.4264   0.0516    0.761     C
C       0.4264    0.761   0.0516     C
C       0.4264    0.761    0.761     C
H       0.4281   0.0237   0.7095     H
H       0.4281   0.0237   0.8387     H
H       0.4281   0.7095   0.0237     H
H       0.4281   0.7095   0.8387     H
H       0.4281   0.8387   0.0237     H
H       0.4281   0.8387   0.7095     H
O       0.4312    0.215   0.4312     O
O       0.4312    0.215   0.9226     O
O       0.4312   0.4312    0.215     O
O       0.4312   0.4312   0.9226     O
O       0.4312   0.9226    0.215     O
O       0.4312   0.9226   0.4312     O
N       0.4457   0.2819   0.3221     N
N       0.4457   0.2819   0.9503     N
N       0.4457   0.3221   0.2819     N
N       0.4457   0.3221   0.9503     N
N       0.4457   0.9503   0.2819     N
N       0.4457   0.9503   0.3221     N
N       0.4554   0.2936   0.3334     N
N       0.4554   0.2936   0.9176     N
N       0.4554   0.3334   0.2936     N
N       0.4554   0.3334   0.9176     N
N       0.4554   0.9176   0.2936     N
N       0.4554   0.9176   0.3334     N
C       0.4759   0.0659   0.7291     C
C       0.4759   0.7291   0.0659     C
C       0.4759   0.7291   0.7291     C
C       0.4896    0.243     0.31     C
C       0.4896    0.243   0.9574     C
C       0.4896     0.31    0.243     C
C       0.4896     0.31   0.9574     C
C       0.4896   0.9574    0.243     C
C       0.4896   0.9574     0.31     C
H       0.4898   0.0764    0.655     H
H       0.4898   0.0764   0.7788     H
H       0.4898    0.655   0.0764     H
H       0.4898    0.655   0.7788     H
H       0.4898   0.7788   0.0764     H
H       0.4898   0.7788    0.655     H
C       0.4991   0.2547   0.3213     C
N       0.4991   0.2547   0.9249     N
N       0.4991   0.3213   0.2547     N
C       0.4991   0.3213   0.9249     C
C       0.4991   0.9249   0.2547     C
N       0.4991   0.9249   0.3213     N
H          0.5   0.0422   0.6668     H
H          0.5   0.0422    0.791     H
H          0.5    0.209   0.3332     H
H          0.5    0.209   0.9578     H
H          0.5   0.3332    0.209     H
H          0.5   0.3332   0.9578     H
H          0.5   0.6668   0.0422     H
H          0.5   0.6668    0.791     H
H          0.5    0.791   0.0422     H
H          0.5    0.791   0.6668     H
H          0.5   0.9578    0.209     H
H          0.5   0.9578   0.3332     H
C       0.5009   0.0751   0.6787     C
N       0.5009   0.0751   0.7453     N
N       0.5009   0.6787   0.0751     N
C       0.5009   0.6787   0.7453     C
C       0.5009   0.7453   0.0751     C
N       0.5009   0.7453   0.6787     N
H       0.5102   0.2212    0.345     H
H       0.5102   0.2212   0.9236     H
H       0.5102    0.345   0.2212     H
H       0.5102    0.345   0.9236     H
H       0.5102   0.9236   0.2212     H
H       0.5102   0.9236    0.345     H
C       0.5104   0.0426     0.69     C
C       0.5104   0.0426    0.757     C
C       0.5104     0.69   0.0426     C
C       0.5104     0.69    0.757     C
C       0.5104    0.757   0.0426     C
C       0.5104    0.757     0.69     C
C       0.5156   0.2604   0.2604     C
C       0.5156   0.2604   0.9636     C
C       0.5156   0.9636   0.2604     C
N       0.5446   0.0824   0.6666     N
N       0.5446   0.0824   0.7064     N
N       0.5446   0.6666   0.0824     N
N       0.5446   0.6666   0.7064     N
N       0.5446   0.7064   0.0824     N
N       0.5446   0.7064   0.6666     N
N       0.5543   0.0497   0.6779     N
N       0.5543   0.0497   0.7181     N
N       0.5543   0.6779   0.0497     N
N       0.5543   0.6779   0.7181     N
N       0.5543   0.7181   0.0497     N
N       0.5543   0.7181   0.6779     N
C       0.5658   0.2292   0.2292     C
C       0.5658   0.2292   0.9758     C
C       0.5658   0.9758   0.2292     C
O       0.5688   0.0774   0.5688     O
O       0.5688   0.0774    0.785     O
O       0.5688   0.5688   0.0774     O
O       0.5688   0.5688    0.785     O
O       0.5688    0.785   0.0774     O
O       0.5688    0.785   0.5688     O
H       0.5719   0.1613   0.2905     H
H       0.5719   0.1613   0.9763     H
H       0.5719   0.2905   0.1613     H
H       0.5719   0.2905   0.9763     H
H       0.5719   0.9763   0.1613     H
H       0.5719   0.9763   0.2905     H
H       0.5832   0.1704   0.2956     H
H       0.5832   0.1704   0.9508     H
H       0.5832   0.2956   0.1704     H
H       0.5832   0.2956   0.9508     H
H       0.5832   0.9508   0.1704     H
H       0.5832   0.9508   0.2956     H
C       0.5898   0.1782    0.256     C
C       0.5898   0.1782    0.976     C
C       0.5898    0.256   0.1782     C
C       0.5898    0.256    0.976     C
C       0.5898    0.976   0.1782     C
C       0.5898    0.976    0.256     C
O       0.5925   0.0085   0.4075     O
O       0.5925   0.0085   0.9915     O
O       0.5925   0.4075   0.0085     O
Cu      0.6003  0.09204   0.6003    Cu
Cu      0.6003  0.09204  0.70736    Cu
Cu      0.6003   0.6003  0.09204    Cu
Cu      0.6003   0.6003  0.70736    Cu
Cu      0.6003  0.70736  0.09204    Cu
Cu      0.6003  0.70736   0.6003    Cu
Cu       0.613  0.05756    0.613    Cu
Cu       0.613  0.05756  0.71644    Cu
Cu       0.613    0.613  0.05756    Cu
Cu       0.613    0.613  0.71644    Cu
Cu       0.613  0.71644  0.05756    Cu
Cu       0.613  0.71644    0.613    Cu
O       0.6336   0.0992   0.6336     O
O       0.6336   0.6336   0.0992     O
O       0.6336   0.6336   0.6336     O
O      0.63764  0.07418  0.30104     O
O      0.63764  0.07418  0.98714     O
O      0.63764  0.30104  0.07418     O
O      0.63764  0.30104  0.98714     O
O      0.63764  0.98714  0.07418     O
O      0.63764  0.98714  0.30104     O
C      0.64032  0.15286  0.23068     C
C      0.64032  0.15286  0.97614     C
C      0.64032  0.23068  0.15286     C
C      0.64032  0.23068  0.97614     C
C      0.64032  0.97614  0.15286     C
C      0.64032  0.97614  0.23068     C
O       0.6442   0.0674   0.6442     O
O       0.6442   0.6442   0.0674     O
O       0.6442   0.6442   0.6442     O
H        0.655   0.0764   0.4898     H
H        0.655   0.0764   0.7788     H
H        0.655   0.4898   0.0764     H
H        0.655   0.4898   0.7788     H
H        0.655   0.7788   0.0764     H
H        0.655   0.7788   0.4898     H
Cu     0.66162      0.0  0.33838    Cu
Cu     0.66162      0.0      1.0    Cu
Cu     0.66162  0.33838      0.0    Cu
C      0.66434  0.09698   0.2542     C
C      0.66434  0.09698  0.98448     C
C      0.66434   0.2542  0.09698     C
C      0.66434   0.2542  0.98448     C
C      0.66434  0.98448  0.09698     C
C      0.66434  0.98448   0.2542     C
C      0.66476  0.17714  0.17714     C
C      0.66476  0.17714  0.98096     C
C      0.66476  0.98096  0.17714     C
N       0.6666   0.0824   0.5446     N
N       0.6666   0.0824   0.7064     N
N       0.6666   0.5446   0.0824     N
N       0.6666   0.5446   0.7064     N
N       0.6666   0.7064   0.0824     N
N       0.6666   0.7064   0.5446     N
H       0.6668   0.0422      0.5     H
H       0.6668   0.0422    0.791     H
H       0.6668      0.5   0.0422     H
H       0.6668      0.5    0.791     H
H       0.6668    0.791   0.0422     H
H       0.6668    0.791      0.5     H
N       0.6779   0.0497   0.5543     N
N       0.6779   0.0497   0.7181     N
N       0.6779   0.5543   0.0497     N
N       0.6779   0.5543   0.7181     N
N       0.6779   0.7181   0.0497     N
N       0.6779   0.7181   0.5543     N
N       0.6787   0.0751   0.5009     N
C       0.6787   0.0751   0.7453     C
C       0.6787   0.5009   0.0751     C
N       0.6787   0.5009   0.7453     N
N       0.6787   0.7453   0.0751     N
C       0.6787   0.7453   0.5009     C
C         0.69   0.0426   0.5104     C
C         0.69   0.0426    0.757     C
C         0.69   0.5104   0.0426     C
C         0.69   0.5104    0.757     C
C         0.69    0.757   0.0426     C
C         0.69    0.757   0.5104     C
H       0.6968    0.158    0.158     H
H       0.6968    0.158   0.9872     H
H       0.6968   0.9872    0.158     H
O      0.69896  0.01286  0.36236     O
O      0.69896  0.01286  0.92582     O
O      0.69896  0.36236  0.01286     O
O      0.69896  0.36236  0.92582     O
O      0.69896  0.92582  0.01286     O
O      0.69896  0.92582  0.36236     O
H       0.7044   0.0492   0.4168     H
H       0.7044   0.0492   0.8296     H
H       0.7044   0.4168   0.0492     H
H       0.7044   0.4168   0.8296     H
H       0.7044   0.8296   0.0492     H
H       0.7044   0.8296   0.4168     H
N       0.7064   0.0824   0.5446     N
N       0.7064   0.0824   0.6666     N
N       0.7064   0.5446   0.0824     N
N       0.7064   0.5446   0.6666     N
N       0.7064   0.6666   0.0824     N
N       0.7064   0.6666   0.5446     N
Cu     0.70736  0.09204   0.6003    Cu
Cu     0.70736   0.6003  0.09204    Cu
Cu     0.70736   0.6003   0.6003    Cu
O      0.70858   0.0744    0.229     O
O      0.70858   0.0744  0.98802     O
O      0.70858    0.229   0.0744     O
O      0.70858    0.229  0.98802     O
O      0.70858  0.98802   0.0744     O
O      0.70858  0.98802    0.229     O
H       0.7095   0.0237   0.4281     H
H       0.7095   0.0237   0.8387     H
H       0.7095   0.4281   0.0237     H
H       0.7095   0.4281   0.8387     H
H       0.7095   0.8387   0.0237     H
H       0.7095   0.8387   0.4281     H
Cu     0.71644  0.05756    0.613    Cu
Cu     0.71644    0.613  0.05756    Cu
Cu     0.71644    0.613    0.613    Cu
N       0.7181   0.0497   0.5543     N
N       0.7181   0.0497   0.6779     N
N       0.7181   0.5543   0.0497     N
N       0.7181   0.5543   0.6779     N
N       0.7181   0.6779   0.0497     N
N       0.7181   0.6779   0.5543     N
C       0.7291   0.0659   0.4759     C
C       0.7291   0.0659   0.7291     C
C       0.7291   0.4759   0.0659     C
C       0.7291   0.4759   0.7291     C
C       0.7291   0.7291   0.0659     C
C       0.7291   0.7291   0.4759     C
C      0.74068  0.04252  0.40292     C
C      0.74068  0.04252  0.81388     C
C      0.74068  0.40292  0.04252     C
C      0.74068  0.40292  0.81388     C
C      0.74068  0.81388  0.04252     C
C      0.74068  0.81388  0.40292     C
C       0.7453   0.0751   0.5009     C
N       0.7453   0.0751   0.6787     N
N       0.7453   0.5009   0.0751     N
C       0.7453   0.5009   0.6787     C
C       0.7453   0.6787   0.0751     C
N       0.7453   0.6787   0.5009     N
C       0.7458  0.01552  0.33566     C
C       0.7458  0.01552  0.90302     C
C       0.7458  0.33566  0.01552     C
C       0.7458  0.33566  0.90302     C
C       0.7458  0.90302  0.01552     C
C       0.7458  0.90302  0.33566     C
Cu      0.7466      0.0      0.0    Cu
Cu      0.7466      0.0   0.2534    Cu
Cu      0.7466   0.2534      0.0    Cu
C        0.757   0.0426   0.5104     C
C        0.757   0.0426     0.69     C
C        0.757   0.5104   0.0426     C
C        0.757   0.5104     0.69     C
C        0.757     0.69   0.0426     C
C        0.757     0.69   0.5104     C
C        0.761   0.0516   0.4264     C
C        0.761   0.0516    0.761     C
C        0.761   0.4264   0.0516     C
C        0.761   0.4264    0.761     C
C        0.761    0.761   0.0516     C
C        0.761    0.761   0.4264     C
C      0.76932  0.02386  0.35968     C
C      0.76932  0.02386  0.84714     C
C      0.76932  0.35968  0.02386     C
C      0.76932  0.35968  0.84714     C
C      0.76932  0.84714  0.02386     C
C      0.76932  0.84714  0.35968     C
O        0.771  0.01198  0.29142     O
O        0.771  0.01198   0.9256     O
O        0.771  0.29142  0.01198     O
O        0.771  0.29142   0.9256     O
O        0.771   0.9256  0.01198     O
O        0.771   0.9256  0.29142     O
H       0.7788   0.0764   0.4898     H
H       0.7788   0.0764    0.655     H
H       0.7788   0.4898   0.0764     H
H       0.7788   0.4898    0.655     H
H       0.7788    0.655   0.0764     H
H       0.7788    0.655   0.4898     H
O        0.785   0.0774   0.5688     O
O        0.785   0.5688   0.0774     O
O        0.785   0.5688   0.5688     O
H        0.791   0.0422      0.5     H
H        0.791   0.0422   0.6668     H
H        0.791      0.5   0.0422     H
H        0.791      0.5   0.6668     H
H        0.791   0.6668   0.0422     H
H        0.791   0.6668      0.5     H
O       0.8088  0.00782  0.00782     O
O       0.8088  0.00782  0.17556     O
O       0.8088  0.17556  0.00782     O
C      0.81388  0.04252  0.40292     C
C      0.81388  0.04252  0.74068     C
C      0.81388  0.40292  0.04252     C
C      0.81388  0.40292  0.74068     C
C      0.81388  0.74068  0.04252     C
C      0.81388  0.74068  0.40292     C
C      0.82286  0.01904  0.33524     C
C      0.82286  0.01904  0.82286     C
C      0.82286  0.33524  0.01904     C
C      0.82286  0.33524  0.82286     C
C      0.82286  0.82286  0.01904     C
C      0.82286  0.82286  0.33524     C
O      0.82444   0.1912  0.99218     O
O      0.82444  0.99218   0.1912     O
O      0.82444  0.99218  0.99218     O
H       0.8296   0.0492   0.4168     H
H       0.8296   0.0492   0.7044     H
H       0.8296   0.4168   0.0492     H
H       0.8296   0.4168   0.7044     H
H       0.8296   0.7044   0.0492     H
H       0.8296   0.7044   0.4168     H
H       0.8387   0.0237   0.4281     H
H       0.8387   0.0237   0.7095     H
H       0.8387   0.4281   0.0237     H
H       0.8387   0.4281   0.7095     H
H       0.8387   0.7095   0.0237     H
H       0.8387   0.7095   0.4281     H
H        0.842   0.0128   0.3032     H
H        0.842   0.0128    0.842     H
H        0.842   0.3032   0.0128     H
H        0.842   0.3032    0.842     H
H        0.842    0.842   0.0128     H
H        0.842    0.842   0.3032     H
C      0.84714  0.02386  0.35968     C
C      0.84714  0.02386  0.76932     C
C      0.84714  0.35968  0.02386     C
C      0.84714  0.35968  0.76932     C
C      0.84714  0.76932  0.02386     C
C      0.84714  0.76932  0.35968     C
O       0.9008   0.3664   0.3664     O
C      0.90302  0.01552  0.33566     C
C      0.90302  0.01552   0.7458     C
C      0.90302  0.33566  0.01552     C
C      0.90302  0.33566   0.7458     C
C      0.90302   0.7458  0.01552     C
C      0.90302   0.7458  0.33566     C
Cu     0.90796  0.29264   0.3997    Cu
Cu     0.90796   0.3997  0.29264    Cu
Cu     0.90796   0.3997   0.3997    Cu
N       0.9176   0.2936   0.3334     N
N       0.9176   0.2936   0.4554     N
N       0.9176   0.3334   0.2936     N
N       0.9176   0.3334   0.4554     N
N       0.9176   0.4554   0.2936     N
N       0.9176   0.4554   0.3334     N
O       0.9226    0.215   0.4312     O
O       0.9226   0.4312    0.215     O
O       0.9226   0.4312   0.4312     O
H       0.9236   0.2212    0.345     H
H       0.9236   0.2212   0.5102     H
H       0.9236    0.345   0.2212     H
H       0.9236    0.345   0.5102     H
H       0.9236   0.5102   0.2212     H
H       0.9236   0.5102    0.345     H
N       0.9249   0.2547   0.3213     N
C       0.9249   0.2547   0.4991     C
C       0.9249   0.3213   0.2547     C
N       0.9249   0.3213   0.4991     N
N       0.9249   0.4991   0.2547     N
C       0.9249   0.4991   0.3213     C
O       0.9256  0.01198  0.29142     O
O       0.9256  0.01198    0.771     O
O       0.9256  0.29142  0.01198     O
O       0.9256  0.29142    0.771     O
O       0.9256    0.771  0.01198     O
O       0.9256    0.771  0.29142     O
O      0.92582  0.01286  0.36236     O
O      0.92582  0.01286  0.69896     O
O      0.92582  0.36236  0.01286     O
O      0.92582  0.36236  0.69896     O
O      0.92582  0.69896  0.01286     O
O      0.92582  0.69896  0.36236     O
O       0.9326   0.3558   0.3558     O
C       0.9341   0.2709   0.2709     C
C       0.9341   0.2709   0.5241     C
C       0.9341   0.5241   0.2709     C
Cu     0.94244  0.28356    0.387    Cu
Cu     0.94244    0.387  0.28356    Cu
Cu     0.94244    0.387    0.387    Cu
C       0.9484    0.239    0.239     C
C       0.9484    0.239   0.5736     C
C       0.9484   0.5736    0.239     C
N       0.9503   0.2819   0.3221     N
N       0.9503   0.2819   0.4457     N
N       0.9503   0.3221   0.2819     N
N       0.9503   0.3221   0.4457     N
N       0.9503   0.4457   0.2819     N
N       0.9503   0.4457   0.3221     N
H       0.9508   0.1704   0.2956     H
H       0.9508   0.1704   0.5832     H
H       0.9508   0.2956   0.1704     H
H       0.9508   0.2956   0.5832     H
H       0.9508   0.5832   0.1704     H
H       0.9508   0.5832   0.2956     H
C       0.9574    0.243     0.31     C
C       0.9574    0.243   0.4896     C
C       0.9574     0.31    0.243     C
C       0.9574     0.31   0.4896     C
C       0.9574   0.4896    0.243     C
C       0.9574   0.4896     0.31     C
C      0.95748  0.18612  0.25932     C
C      0.95748  0.18612  0.59708     C
C      0.95748  0.25932  0.18612     C
C      0.95748  0.25932  0.59708     C
C      0.95748  0.59708  0.18612     C
C      0.95748  0.59708  0.25932     C
H       0.9578    0.209   0.3332     H
H       0.9578    0.209      0.5     H
H       0.9578   0.3332    0.209     H
H       0.9578   0.3332      0.5     H
H       0.9578      0.5    0.209     H
H       0.9578      0.5   0.3332     H
C      0.97614  0.15286  0.23068     C
C      0.97614  0.15286  0.64032     C
C      0.97614  0.23068  0.15286     C
C      0.97614  0.23068  0.64032     C
C      0.97614  0.64032  0.15286     C
C      0.97614  0.64032  0.23068     C
H       0.9763   0.1613   0.2905     H
H       0.9763   0.1613   0.5719     H
H       0.9763   0.2905   0.1613     H
H       0.9763   0.2905   0.5719     H
H       0.9763   0.5719   0.1613     H
H       0.9763   0.5719   0.2905     H
C      0.98096  0.17714  0.17714     C
C      0.98096  0.17714  0.66476     C
C      0.98096  0.66476  0.17714     C
C      0.98448  0.09698   0.2542     C
C      0.98448  0.09698  0.66434     C
C      0.98448   0.2542  0.09698     C
C      0.98448   0.2542  0.66434     C
C      0.98448  0.66434  0.09698     C
C      0.98448  0.66434   0.2542     C
O      0.98714  0.07418  0.30104     O
O      0.98714  0.07418  0.63764     O
O      0.98714  0.30104  0.07418     O
O      0.98714  0.30104  0.63764     O
O      0.98714  0.63764  0.07418     O
O      0.98714  0.63764  0.30104     O
H       0.9872    0.158    0.158     H
H       0.9872    0.158   0.6968     H
H       0.9872   0.6968    0.158     H
O      0.98802   0.0744    0.229     O
O      0.98802   0.0744  0.70858     O
O      0.98802    0.229   0.0744     O
O      0.98802    0.229  0.70858     O
O      0.98802  0.70858   0.0744     O
O      0.98802  0.70858    0.229     O
O      0.99218   0.1912  0.82444     O
O      0.99218   0.1912  0.99218     O
O      0.99218  0.82444   0.1912     O
O      0.99218  0.82444  0.99218     O
O      0.99218  0.99218   0.1912     O
O      0.99218  0.99218  0.82444     O
Cu         1.0      0.0   0.2534    Cu
Cu         1.0      0.0  0.33838    Cu
Cu         1.0      0.0  0.66162    Cu
Cu         1.0      0.0   0.7466    Cu
Cu         1.0   0.2534      0.0    Cu
Cu         1.0  0.33838      0.0    Cu
Cu         1.0  0.66162      0.0    Cu
Cu         1.0   0.7466      0.0    Cu
