data_I
_chemical_name_common  '/home/zhangsd/repos/MofS-CGCNN/ML/data/WS24/clean_cifs/UiO-66-CF3'
_cell_length_a 14.67267
_cell_length_b 14.67267
_cell_length_c 14.67267
_cell_angle_alpha 60.00000
_cell_angle_beta  60.00000
_cell_angle_gamma 60.00000
_space_group_name_H-M_alt      'P 1'


loop_
_space_group_symop_operation_xyz
  'x, y, z' 

loop_
_atom_site_label
_atom_site_fract_x
_atom_site_fract_y
_atom_site_fract_z
_atom_site_type_symbol
O     0.06730802999999999 0.06730802999999999 0.06730803     O
O     0.06730802999999999 0.06730802999999999 0.79807592     O
O     0.06730802999999999 0.79807592 0.06730803     O
O     0.07472636999999993 0.26724722 0.73791874     O
O     0.07472636999999994 0.7379187399999999 0.92010767     O
O     0.07472636999999997 0.73791874 0.26724722     O
O     0.07472636999999999 0.92010767 0.73791874     O
O     0.07472637 0.26724721999999995 0.92010767     O
O     0.07472637000000003 0.9201076699999999 0.26724722     O
C     0.07574971999999998 0.45960615999999993 0.91094788     C
C     0.07574971999999998 0.91094788 0.55369624     C
C     0.07574972 0.55369624 0.45960616     C
C     0.07574972000000003 0.45960615999999993 0.55369624     C
C     0.07574972000000003 0.55369624 0.91094788     C
C     0.07574972000000003 0.9109478799999999 0.45960616     C
H     0.09439580999999993 0.71681257 0.09439581     H
H     0.09439580999999994 0.09439581 0.71681257     H
H     0.09439580999999996 0.09439580999999998 0.09439581     H
Zr    0.11979582999999991 0.88020417 0.88020417    Zr
Zr    0.11979582999999996 0.11979583000000002 0.88020417    Zr
Zr    0.11979583000000003 0.8802041699999997 0.11979583    Zr
H     0.13921644999999985 0.8476207399999999 0.59277104     H
H     0.1392164499999999 0.42039177 0.84762074     H
H     0.13921644999999996 0.59277104 0.42039177000000005     H
O     0.15125375999999985 0.9495820799999999 0.94958208     O
O     0.26724721999999995 0.07472636999999994 0.92010767     O
O     0.26724721999999995 0.7379187399999999 0.92010767     O
O     0.26724722 0.9201076699999999 0.07472637     O
O     0.26724722 0.92010767 0.73791874     O
O     0.26724722000000006 0.7379187399999999 0.07472637     O
O     0.2672472200000001 0.07472636999999999 0.73791874     O
F     0.3021780788120717 0.22687746718503551 0.864023956020163     F
C     0.30881657000000007 0.6992797299999999 0.99595185     C
C     0.30881657000000007 0.9959518499999999 0.6992797300000001     C
C     0.3088165700000002 0.9959518499999999 0.99595185     C
F     0.40742973862373694 0.12050575828343713 0.7598923452984311     F
C     0.40926725970490335 0.164762910031295 0.8209823775682671     C
C     0.4118676499999998 0.60055787 0.9937872400000001     C
C     0.4118676499999998 0.99378724 0.60055787     C
C     0.4118676499999999 0.99378724 0.9937872400000001     C
H     0.4203917699999999 0.59277104 0.84762074     H
H     0.4203917699999999 0.8476207399999999 0.59277104     H
H     0.42039176999999994 0.84762074 0.13921645     H
H     0.42039177 0.13921644999999996 0.59277104     H
H     0.42039177 0.59277104 0.13921645     H
C     0.45960615999999993 0.07574971999999998 0.91094788     C
C     0.45960615999999993 0.91094788 0.55369624     C
C     0.45960616000000004 0.07574971999999998 0.55369624     C
C     0.45960616000000004 0.55369624 0.91094788     C
C     0.45960616000000004 0.9109478799999999 0.07574972     C
C     0.4596061600000001 0.5536962399999998 0.07574972     C
F     0.4672418301955462 0.2370030581206199 0.7479693643697292     F
F     0.547785747314104 0.4672418301955461 -0.2520306356302704     F
F     0.5477857473141047 0.23700305812061992 0.4672418301955461     F
C     0.5536962399999998 0.9109478799999999 0.07574972     C
C     0.55369624 0.07574971999999998 0.91094788     C
C     0.55369624 0.07574972 0.45960616     C
C     0.55369624 0.45960615999999993 0.91094788     C
C     0.55369624 0.45960616 0.07574972     C
C     0.55369624 0.9109478799999999 0.45960616     C
H     0.5927710399999998 0.84762074 0.13921645     H
H     0.5927710399999998 0.84762074 0.42039177000000005     H
H     0.5927710399999999 0.13921644999999996 0.84762074     H
H     0.59277104 0.42039177 0.13921645     H
C     0.6005578699999997 0.99378724 0.9937872400000001     C
C     0.6005578699999999 0.41186765000000003 0.9937872400000001     C
C     0.6005578699999999 0.99378724 0.41186765     C
C     0.6049874526955341 0.4092672597049031 -0.1790176224317327     C
C     0.6049874526955347 0.16476291003129498 0.4092672597049032     C
F     0.6069204979827285 0.3021780788120717 -0.13597604397983637     F
F     0.6069204979827298 0.22687746718503532 0.3021780788120719     F
C     0.6992797299999999 0.30881656999999996 0.99595185     C
C     0.6992797299999999 0.9959518499999999 0.99595185     C
C     0.6992797299999999 0.99595185 0.30881657     C
F     0.7121721577943938 0.40742973862373644 -0.24010765470156886     F
F     0.7121721577943947 0.12050575828343717 0.40742973862373716     F
H     0.7168125700000001 0.09439580999999998 0.09439581     H
O     0.73791874 0.07472637 0.26724722     O
O     0.73791874 0.26724721999999995 0.07472637     O
O     0.73791874 0.9201076699999999 0.07472637     O
O     0.7379187400000001 0.07472636999999994 0.92010767     O
O     0.7379187400000001 0.26724721999999995 0.92010767     O
O     0.7379187400000001 0.9201076699999999 0.26724722     O
O     0.79807592 0.06730802999999999 0.06730803     O
H     0.8476207399999998 0.59277104 0.13921645     H
H     0.84762074 0.59277104 0.42039177000000005     H
H     0.8476207400000001 0.13921644999999996 0.42039177000000005     H
H     0.8476207400000001 0.13921644999999996 0.59277104     H
H     0.8476207400000001 0.42039177 0.13921645     H
H     0.8476207400000001 0.42039177 0.59277104     H
Zr    0.8802041699999997 0.11979582999999998 0.11979583    Zr
Zr    0.8802041699999997 0.11979583000000002 0.88020417    Zr
Zr    0.8802041699999998 0.8802041699999997 0.11979583    Zr
C     0.9109478799999998 0.5536962399999998 0.07574972     C
C     0.9109478799999999 0.55369624 0.45960616     C
C     0.91094788 0.07574971999999998 0.55369624     C
C     0.91094788 0.45960616 0.07574972     C
C     0.9109478800000002 0.07574972 0.45960616     C
C     0.9109478800000003 0.45960615999999993 0.55369624     C
O     0.9201076699999998 0.07472636999999999 0.73791874     O
O     0.9201076699999999 0.7379187399999999 0.07472637     O
O     0.9201076699999999 0.73791874 0.26724722     O
O     0.92010767 0.26724721999999995 0.07472637     O
O     0.92010767 0.26724722 0.73791874     O
O     0.9201076700000002 0.07472637 0.26724722     O
O     0.9495820799999999 0.15125375999999996 0.94958208     O
O     0.9495820799999999 0.94958208 0.15125376     O
O     0.9495820800000001 0.9495820799999999 0.94958208     O
C     0.9937872399999997 0.41186765000000003 0.60055787     C
C     0.9937872399999997 0.41186765000000003 0.9937872400000001     C
C     0.9937872399999997 0.60055787 0.9937872400000001     C
C     0.99378724 0.6005578699999999 0.41186765     C
C     0.99378724 0.99378724 0.41186765     C
C     0.99378724 0.99378724 0.60055787     C
C     0.9959518499999996 0.30881656999999996 0.6992797300000001     C
C     0.9959518499999996 0.6992797299999999 0.99595185     C
C     0.9959518499999996 0.9959518499999999 0.6992797300000001     C
C     0.9959518499999999 0.30881656999999996 0.99595185     C
C     0.99595185 0.6992797299999999 0.30881657     C
C     0.99595185 0.99595185 0.30881657     C
F     1.1205057582834375 0.7121721577943946 -0.24010765470156842     F
F     1.1205057582834377 0.4074297386237365 0.7121721577943942     F
F     1.1205057582834383 -0.24010765470156922 0.4074297386237367     F
C     1.1647629100312953 0.409267259704903 0.6049874526955342     C
C     1.1647629100312953 0.6049874526955343 -0.1790176224317324     C
C     1.1647629100312955 -0.1790176224317329 0.40926725970490324     C
F     1.2268774671850353 0.6069204979827292 -0.13597604397983587     F
F     1.2268774671850358 0.302178078812072 0.6069204979827293     F
F     1.2268774671850362 -0.1359760439798368 0.302178078812072     F
F     1.2370030581206202 0.467241830195546 0.5477857473141041     F
F     1.2370030581206204 -0.25203063563027056 0.4672418301955464     F
F     1.2370030581206206 0.5477857473141043 -0.2520306356302702     F
