data_I
_chemical_name_common  '/home/zhangsd/repos/MofS-CGCNN/ML/data/WS24/clean_cifs/UiO-66-SO3H'
_cell_length_a 14.67267
_cell_length_b 14.67267
_cell_length_c 14.67267
_cell_angle_alpha 60.00000
_cell_angle_beta  60.00000
_cell_angle_gamma 60.00000
_space_group_name_H-M_alt      'P 1'


loop_
_space_group_symop_operation_xyz
  'x, y, z' 

loop_
_atom_site_label
_atom_site_fract_x
_atom_site_fract_y
_atom_site_fract_z
_atom_site_type_symbol
O     -0.47094397662626253 -0.16146649663281928 0.301695619283446     O
O     -0.419109172011397 -0.29012261146259477 0.20838117668262118     O
S     -0.40015578325388573 -0.18244095287005385 0.19675928610934826     S
H     -0.34671862851269236 -0.3348440858299891 0.16974308671121385     H
H     -0.28786952048737346 0.42595896547097434 -0.24785362348543707     H
O     -0.2797697731804183 -0.20552798826586524 0.15095739440521488     O
O     -0.2767986690166641 0.46369060752854313 -0.43087313881078315     O
O     -0.24510283502889862 0.3861240074337367 0.14295305558317167     O
O     -0.2282711163208345 0.41570481847491747 0.291486063003977     O
O     -0.21652258436989552 0.36704207142742556 -0.26443165090062876     O
S     -0.18001602365791375 0.38168724927303055 -0.3959844156024627     S
S     -0.17990285740055764 0.38158238617301204 0.1944457853594245     S
O     -0.1272019935631434 0.26946846779076383 -0.4005908712320826     O
O     -0.09851057567598102 0.25026635069820885 0.2294791522802501     O
H     -0.09319543793412219 0.23333957377505363 0.30036738471799895     H
C     0.00404814871860483 0.0040481487186048715 0.3007202708326165     C
C     0.004048148718604842 0.3007202708326165 0.004048148718604875     C
C     0.0040481487186048715 0.004048148718604844 0.6911834317301737     C
C     0.0040481487186048715 0.3007202708326165 0.6911834317301737     C
C     0.004048148718604872 0.6911834317301738 0.004048148718604868     C
C     0.004048148718604913 0.6911834317301737 0.3007202708326165     C
C     0.006212760090489711 0.006212760090489711 0.5881323531238938     C
C     0.006212760090489738 0.006212760090489738 0.39944212669512674     C
C     0.006212760090489754 0.39944212669512663 0.006212760090489745     C
C     0.006212760090489766 0.39944212669512663 0.5881323531238938     C
C     0.006212760090489815 0.5881323531238937 0.0062127600904897315     C
C     0.006212760090489822 0.5881323531238938 0.39944212669512674     C
O     0.05041791836300205 0.050417918363002065 0.05041791836300206     O
O     0.05041791836300208 0.05041791836300208 0.8487462449109938     O
O     0.05041791836300211 0.8487462449109938 0.05041791836300205     O
O     0.07137229958042132 -0.2062246410281346 0.38392528581375757     O
O     0.0798923304293695 0.7327527779297721 0.9252736277077703     O
O     0.07989233042936955 0.262081263933088 0.7327527779297722     O
O     0.07989233042936955 0.92527362770777 0.7327527779297722     O
O     0.0798923304293696 0.26208126393308806 0.9252736277077703     O
O     0.07989233042936963 0.9252736277077701 0.26208126393308806     O
O     0.07989233042936975 0.732752777929772 0.26208126393308806     O
C     0.08905211726654783 0.92425027952376 0.44630376161666524     C
C     0.08905211726654794 0.44630376161666513 0.9242502795237599     C
C     0.08905211726654794 0.4463037616166652 0.540393841593027     C
C     0.08905211726654794 0.540393841593027 0.9242502795237599     C
C     0.08905211726654794 0.9242502795237598 0.540393841593027     C
C     0.08905211726654802 0.5403938415930268 0.4463037616166652     C
H     0.11537682499019947 -0.3289587647051212 0.5516593848241051     H
Zr    0.11979582666147048 0.8802041733385295 0.8802041733385295    Zr
Zr    0.11979582666147054 0.11979582666147048 0.8802041733385295    Zr
Zr    0.1197958266614706 0.8802041733385295 0.11979582666147053    Zr
H     0.15237925664159957 0.5796082345582476 0.8607835485792726     H
H     0.15237925664159957 0.8607835485792726 0.5796082345582476     H
H     0.15237925664159968 0.40722896022087995 0.8607835485792726     H
H     0.15237925664159968 0.40722896022088007 0.5796082345582476     H
H     0.15237925664159974 0.5796082345582476 0.40722896022087995     H
S     0.15419447739706457 -0.19465150806102222 0.4012523449477436     S
O     0.1733115766522714 -0.2958811931642244 0.517586503501493     O
O     0.201924081030382 0.9326919729898726 0.9326919729898727     O
H     0.21996111001765326 -0.4145655844354187 0.28212867755980964     H
O     0.24902866883789226 -0.3599473400080674 0.2126824243300113     O
O     0.2620812639330879 0.92527362770777 0.7327527779297722     O
O     0.26208126393308806 0.07989233042936955 0.9252736277077703     O
O     0.26208126393308806 0.7327527779297721 0.9252736277077703     O
O     0.26208126393308806 0.9252736277077701 0.07989233042936959     O
O     0.2620812639330881 0.0798923304293695 0.7327527779297722     O
O     0.26208126393308817 0.732752777929772 0.07989233042936958     O
O     0.2648813842400459 -0.19644667991020545 0.3211402371140022     O
O     0.26949058289667094 0.25834537486242726 -0.4006076944575235     O
H     0.2831874286339028 0.9056041904553657 0.9056041904553659     H
C     0.3007202708326164 0.004048148718604844 0.6911834317301737     C
C     0.30072027083261643 0.6911834317301738 0.004048148718604865     C
C     0.3007202708326165 0.004048148718604868 0.004048148718604875     C
O     0.3670577072796076 0.11393076222304936 -0.26444368521845746     O
S     0.38158247771369647 -0.3961253310063231 0.19444578163287268     S
S     0.3817080023361835 0.19432157386681975 -0.39599978280881765     S
O     0.3991430852861367 -0.4831866345230071 0.29801599078812596     O
C     0.3994421266951267 0.0062127600904897315 0.006212760090489745     C
C     0.3994421266951267 0.5881323531238937 0.0062127600904897315     C
C     0.39944212669512674 0.006212760090489711 0.5881323531238938     C
O     0.4032151043944598 -0.2924507634740451 0.14651797480370596     O
H     0.40722896022087984 0.5796082345582476 0.8607835485792726     H
H     0.40722896022087984 0.8607835485792726 0.5796082345582476     H
H     0.40722896022087995 0.8607835485792725 0.15237925664159976     H
H     0.40722896022088007 0.15237925664159974 0.8607835485792726     H
H     0.4259811269930509 0.10977599045521307 -0.24787013984801323     H
C     0.4463037616166652 0.9242502795237598 0.540393841593027     C
C     0.4463037616166652 0.9242502795237599 0.08905211726654792     C
C     0.44630376161666524 0.08905211726654788 0.9242502795237599     C
C     0.4463037616166653 0.08905211726654788 0.540393841593027     C
C     0.4463037616166653 0.540393841593027 0.08905211726654792     C
C     0.44630376161666535 0.540393841593027 0.9242502795237599     C
O     0.463726074481019 0.24397591625558648 -0.43089867270432086     O
C     0.5403938415930267 0.44630376161666524 0.9242502795237599     C
C     0.5403938415930268 0.08905211726654794 0.4463037616166652     C
C     0.5403938415930268 0.92425027952376 0.4463037616166652     C
C     0.540393841593027 0.08905211726654788 0.9242502795237599     C
C     0.540393841593027 0.4463037616166652 0.08905211726654794     C
C     0.540393841593027 0.9242502795237599 0.08905211726654794     C
H     0.5796082345582475 0.40722896022087995 0.15237925664159976     H
H     0.5796082345582475 0.8607835485792725 0.40722896022088     H
H     0.5796082345582476 0.15237925664159974 0.40722896022087995     H
H     0.5796082345582476 0.15237925664159974 0.8607835485792726     H
H     0.5796082345582476 0.40722896022087995 0.8607835485792726     H
C     0.5881323531238938 0.006212760090489738 0.39944212669512674     C
C     0.5881323531238938 0.006212760090489745 0.0062127600904897315     C
C     0.5881323531238939 0.39944212669512663 0.006212760090489745     C
C     0.6911834317301736 0.0040481487186048715 0.3007202708326165     C
C     0.6911834317301736 0.3007202708326165 0.004048148718604872     C
C     0.6911834317301737 0.004048148718604874 0.004048148718604868     C
O     0.7327527779297719 0.9252736277077701 0.07989233042936958     O
O     0.732752777929772 0.0798923304293696 0.26208126393308806     O
O     0.732752777929772 0.26208126393308806 0.07989233042936959     O
O     0.732752777929772 0.9252736277077701 0.26208126393308806     O
O     0.7327527779297721 0.0798923304293696 0.9252736277077703     O
O     0.7327527779297721 0.26208126393308806 0.9252736277077703     O
O     0.8487462449109937 0.050417918363002065 0.05041791836300206     O
H     0.8607835485792725 0.15237925664159974 0.40722896022087995     H
H     0.8607835485792726 0.1523792566415998 0.5796082345582476     H
H     0.8607835485792726 0.5796082345582475 0.15237925664159976     H
H     0.8607835485792728 0.5796082345582476 0.40722896022088     H
Zr    0.8802041733385293 0.8802041733385295 0.11979582666147053    Zr
Zr    0.8802041733385295 0.11979582666147048 0.8802041733385295    Zr
Zr    0.8802041733385295 0.11979582666147054 0.11979582666147053    Zr
H     0.9056041904553656 0.9056041904553658 0.2831874286339028     H
H     0.9056041904553657 0.2831874286339028 0.9056041904553659     H
H     0.9056041904553657 0.9056041904553657 0.9056041904553659     H
C     0.9242502795237598 0.08905211726654788 0.540393841593027     C
C     0.9242502795237598 0.4463037616166652 0.08905211726654792     C
C     0.9242502795237598 0.4463037616166652 0.540393841593027     C
C     0.9242502795237598 0.5403938415930268 0.4463037616166652     C
C     0.9242502795237599 0.540393841593027 0.08905211726654794     C
C     0.92425027952376 0.08905211726654796 0.4463037616166652     C
O     0.9252736277077701 0.0798923304293696 0.26208126393308806     O
O     0.9252736277077701 0.732752777929772 0.07989233042936958     O
O     0.9252736277077701 0.732752777929772 0.26208126393308806     O
O     0.9252736277077702 0.0798923304293695 0.7327527779297722     O
O     0.9252736277077702 0.262081263933088 0.7327527779297722     O
O     0.9252736277077702 0.26208126393308806 0.07989233042936959     O
O     0.9326919729898725 0.9326919729898726 0.2019240810303821     O
O     0.9326919729898726 0.201924081030382 0.9326919729898727     O
O     0.9326919729898726 0.9326919729898726 0.9326919729898727     O
