data_I
_chemical_name_common  '/home/zhangsd/repos/MofS-CGCNN/ML/data/WS24/clean_cifs/UiO-66-DM'
_cell_length_a 14.67267
_cell_length_b 14.67267
_cell_length_c 14.67267
_cell_angle_alpha 60.00000
_cell_angle_beta  60.00000
_cell_angle_gamma 60.00000
_space_group_name_H-M_alt      'P 1'


loop_
_space_group_symop_operation_xyz
  'x, y, z' 

loop_
_atom_site_label
_atom_site_fract_x
_atom_site_fract_y
_atom_site_fract_z
_atom_site_type_symbol
O     0.06730802999999999 0.06730802999999999 0.06730803     O
O     0.06730802999999999 0.06730802999999999 0.79807592     O
O     0.06730802999999999 0.79807592 0.06730803     O
O     0.07472636999999993 0.26724722 0.73791874     O
O     0.07472636999999994 0.7379187399999999 0.92010767     O
O     0.07472636999999997 0.73791874 0.26724722     O
O     0.07472636999999999 0.92010767 0.73791874     O
O     0.07472637 0.26724721999999995 0.92010767     O
O     0.07472637000000003 0.9201076699999999 0.26724722     O
C     0.07574971999999998 0.45960615999999993 0.91094788     C
C     0.07574971999999998 0.91094788 0.55369624     C
C     0.07574972 0.55369624 0.45960616     C
C     0.07574972000000003 0.45960615999999993 0.55369624     C
C     0.07574972000000003 0.55369624 0.91094788     C
C     0.07574972000000003 0.9109478799999999 0.45960616     C
H     0.09439580999999993 0.71681257 0.09439581     H
H     0.09439580999999994 0.09439581 0.71681257     H
H     0.09439580999999996 0.09439580999999998 0.09439581     H
Zr    0.11979582999999991 0.88020417 0.88020417    Zr
Zr    0.11979582999999996 0.11979583000000002 0.88020417    Zr
Zr    0.11979583000000003 0.8802041699999997 0.11979583    Zr
H     0.13921644999999985 0.8476207399999999 0.59277104     H
H     0.1392164499999999 0.42039177 0.84762074     H
H     0.13921644999999996 0.59277104 0.42039177000000005     H
O     0.15125375999999985 0.9495820799999999 0.94958208     O
O     0.26724721999999995 0.07472636999999994 0.92010767     O
O     0.26724721999999995 0.7379187399999999 0.92010767     O
O     0.26724722 0.9201076699999999 0.07472637     O
O     0.26724722 0.92010767 0.73791874     O
O     0.26724722000000006 0.7379187399999999 0.07472637     O
O     0.2672472200000001 0.07472636999999999 0.73791874     O
C     0.30881657000000007 0.6992797299999999 0.99595185     C
C     0.30881657000000007 0.9959518499999999 0.6992797300000001     C
C     0.3088165700000002 0.9959518499999999 0.99595185     C
H     0.3233148815859201 -0.14220702630245058 0.6055036854252034     H
H     0.32331488158592026 0.21338845929132721 0.8577929736975491     H
H     0.3233148815859208 0.6055036854252034 0.21338845929132744     H
H     0.4088090512856389 -0.22679139878720797 0.6909978551249227     H
H     0.40880905128563927 0.12698449237664622 0.773208601212792     H
H     0.40880905128564 0.6909978551249221 0.12698449237664647     H
C     0.4089338895042732 -0.17961342046108203 0.6053271296008031     C
C     0.4089338895042734 0.16535240135600557 0.8203865795389178     C
C     0.408933889504274 0.6053271296008028 0.16535240135600562     C
C     0.4118676499999998 0.60055787 0.9937872400000001     C
C     0.4118676499999998 0.99378724 0.60055787     C
C     0.4118676499999999 0.99378724 0.9937872400000001     C
H     0.4203917699999999 0.59277104 0.84762074     H
H     0.42039176999999994 0.84762074 0.13921645     H
H     0.42039177 0.13921644999999996 0.59277104     H
H     0.45739341675869205 -0.23647623755050104 0.5574695126828401     H
H     0.4573934167586923 0.22161330810896884 0.7635237624494988     H
H     0.45739341675869316 0.5574695126828395 0.2216133081089687     H
C     0.45960615999999993 0.07574971999999998 0.91094788     C
C     0.45960615999999993 0.91094788 0.55369624     C
C     0.45960616000000004 0.07574971999999998 0.55369624     C
C     0.45960616000000004 0.55369624 0.91094788     C
C     0.45960616000000004 0.9109478799999999 0.07574972     C
C     0.4596061600000001 0.5536962399999998 0.07574972     C
C     0.5536962399999998 0.9109478799999999 0.07574972     C
C     0.55369624 0.07574971999999998 0.91094788     C
C     0.55369624 0.07574972 0.45960616     C
C     0.55369624 0.45960615999999993 0.91094788     C
C     0.55369624 0.45960616 0.07574972     C
C     0.55369624 0.9109478799999999 0.45960616     C
H     0.5574695126828393 0.4573934167586922 -0.2364762375505008     H
H     0.5574695126828397 -0.23647623755050134 1.2216133081089686     H
H     0.5574695126828402 0.22161330810896887 0.4573934167586922     H
H     0.5927710399999998 0.84762074 0.42039177000000005     H
H     0.5927710399999999 0.13921644999999996 0.84762074     H
H     0.59277104 0.42039177 0.13921645     H
C     0.6005578699999997 0.99378724 0.9937872400000001     C
C     0.6005578699999999 0.41186765000000003 0.9937872400000001     C
C     0.6005578699999999 0.99378724 0.41186765     C
C     0.6053271296008026 0.40893388950427334 -0.17961342046108195     C
C     0.6053271296008028 -0.1796134204610824 1.1653524013560055     C
C     0.6053271296008031 0.16535240135600554 0.4089338895042734     C
H     0.6055036854252027 0.3233148815859199 -0.14220702630245027     H
H     0.6055036854252033 -0.14220702630245086 1.213388459291327     H
H     0.6055036854252038 0.21338845929132694 0.3233148815859202     H
H     0.6909978551249218 0.4088090512856388 -0.2267913987872079     H
H     0.690997855124922 -0.22679139878720816 1.126984492376646     H
H     0.6909978551249226 0.1269844923766461 0.4088090512856393     H
C     0.6992797299999999 0.30881656999999996 0.99595185     C
C     0.6992797299999999 0.9959518499999999 0.99595185     C
C     0.6992797299999999 0.99595185 0.30881657     C
H     0.7168125700000001 0.09439580999999998 0.09439581     H
O     0.73791874 0.07472637 0.26724722     O
O     0.73791874 0.26724721999999995 0.07472637     O
O     0.73791874 0.9201076699999999 0.07472637     O
O     0.7379187400000001 0.07472636999999994 0.92010767     O
O     0.7379187400000001 0.26724721999999995 0.92010767     O
O     0.7379187400000001 0.9201076699999999 0.26724722     O
H     0.7635237624494987 0.5574695126828403 0.4573934167586924     H
H     0.7635237624494988 0.22161330810896882 0.5574695126828397     H
H     0.7635237624494992 0.45739341675869183 0.22161330810896931     H
H     0.7732086012127914 0.12698449237664597 0.6909978551249227     H
H     0.7732086012127919 0.40880905128563844 0.12698449237664733     H
H     0.7732086012127919 0.6909978551249225 0.4088090512856395     H
O     0.79807592 0.06730802999999999 0.06730803     O
C     0.8203865795389176 0.16535240135600549 0.6053271296008031     C
C     0.8203865795389178 0.6053271296008034 0.40893388950427356     C
C     0.8203865795389181 0.4089338895042731 0.16535240135600596     C
H     0.8476207399999998 0.59277104 0.13921645     H
H     0.8476207400000001 0.13921644999999996 0.42039177000000005     H
H     0.8476207400000001 0.42039177 0.59277104     H
H     0.8577929736975486 0.2133884592913269 0.6055036854252038     H
H     0.857792973697549 0.6055036854252036 0.3233148815859204     H
H     0.8577929736975494 0.32331488158592 0.2133884592913273     H
Zr    0.8802041699999997 0.11979582999999998 0.11979583    Zr
Zr    0.8802041699999997 0.11979583000000002 0.88020417    Zr
Zr    0.8802041699999998 0.8802041699999997 0.11979583    Zr
C     0.9109478799999998 0.5536962399999998 0.07574972     C
C     0.9109478799999999 0.55369624 0.45960616     C
C     0.91094788 0.07574971999999998 0.55369624     C
C     0.91094788 0.45960616 0.07574972     C
C     0.9109478800000002 0.07574972 0.45960616     C
C     0.9109478800000003 0.45960615999999993 0.55369624     C
O     0.9201076699999998 0.07472636999999999 0.73791874     O
O     0.9201076699999999 0.7379187399999999 0.07472637     O
O     0.9201076699999999 0.73791874 0.26724722     O
O     0.92010767 0.26724721999999995 0.07472637     O
O     0.92010767 0.26724722 0.73791874     O
O     0.9201076700000002 0.07472637 0.26724722     O
O     0.9495820799999999 0.15125375999999996 0.94958208     O
O     0.9495820799999999 0.94958208 0.15125376     O
O     0.9495820800000001 0.9495820799999999 0.94958208     O
C     0.9937872399999997 0.41186765000000003 0.60055787     C
C     0.9937872399999997 0.41186765000000003 0.9937872400000001     C
C     0.9937872399999997 0.60055787 0.9937872400000001     C
C     0.99378724 0.6005578699999999 0.41186765     C
C     0.99378724 0.99378724 0.41186765     C
C     0.99378724 0.99378724 0.60055787     C
C     0.9959518499999996 0.30881656999999996 0.6992797300000001     C
C     0.9959518499999996 0.6992797299999999 0.99595185     C
C     0.9959518499999996 0.9959518499999999 0.6992797300000001     C
C     0.9959518499999999 0.30881656999999996 0.99595185     C
C     0.99595185 0.6992797299999999 0.30881657     C
C     0.99595185 0.99595185 0.30881657     C
H     1.1269844923766468 -0.22679139878720836 0.4088090512856392     H
H     1.1269844923766468 0.40880905128563866 0.690997855124922     H
H     1.126984492376647 0.6909978551249221 -0.22679139878720744     H
C     1.165352401356006 0.6053271296008028 -0.17961342046108159     C
C     1.1653524013560062 -0.1796134204610821 0.40893388950427345     C
C     1.1653524013560062 0.40893388950427323 0.6053271296008027     C
H     1.2133884592913273 0.3233148815859196 0.6055036854252032     H
H     1.2133884592913273 0.6055036854252029 -0.14220702630244983     H
H     1.2133884592913275 -0.1422070263024507 0.3233148815859204     H
H     1.2216133081089693 -0.23647623755050087 0.45739341675869244     H
H     1.2216133081089693 0.45739341675869216 0.5574695126828393     H
H     1.2216133081089695 0.5574695126828396 -0.23647623755050048     H
