data_I
_chemical_name_common  '/home/zhangsd/repos/MofS-CGCNN/ML/data/WS24/clean_cifs/UNIPEN'
_cell_length_a 10.44510
_cell_length_b 12.45480
_cell_length_c 28.64870
_cell_angle_alpha 90.00000
_cell_angle_beta  90.00000
_cell_angle_gamma 90.00000
_space_group_name_H-M_alt      'P 1'


loop_
_space_group_symop_operation_xyz
  'x, y, z' 

loop_
_atom_site_label
_atom_site_fract_x
_atom_site_fract_y
_atom_site_fract_z
_atom_site_type_symbol
C       0.0016    0.375   0.4993     C
C        0.006   0.2778   0.2652     C
H       0.0118   0.7949   0.2657     H
C       0.0136   0.7426    0.427     C
C       0.0192   0.2518   0.6794     C
C       0.0195    0.096   0.6292     C
C       0.0198   0.9415   0.5805     C
C         0.02   0.1275   0.1506     C
H       0.0226   0.3038    0.493     H
H       0.0276    0.783   0.4539     H
H       0.0364   0.0892   0.1778     H
H       0.0387   0.2848   0.7077     H
C       0.0428   0.8127   0.1572     C
C       0.0439   0.0833   0.9828     C
C        0.049   0.8096   0.8543     C
C       0.0502   0.6516   0.9032     C
C       0.0537   0.9877   0.6212     C
C       0.0555   0.4946   0.9524     C
C       0.0576   0.1495   0.6723     C
H       0.0588   0.9167   0.1027     H
H       0.0589   0.5732   0.6447     H
H       0.0608   0.1554   0.9769     H
H        0.066   0.5488   0.2057     H
C       0.0661   0.2519   0.3512     C
H       0.0697   0.8812    0.849     H
C       0.0698   0.8227   0.2029     C
N       0.0706   0.5414   0.5308     N
H       0.0721    0.527   0.7231     H
C       0.0774   0.8297   0.5727     C
O       0.0791   0.7637   0.6044     O
H       0.0845    0.484   0.1308     H
C        0.085   0.7611   0.8949     C
C       0.0869   0.5993   0.9447     C
C       0.0887   0.4397   0.5217     C
H       0.0949   0.2437   0.3817     H
H       0.0973   0.7435   0.0721     H
N       0.0978   0.2157   0.2716     N
C       0.0981   0.6192   0.3704     C
N       0.0983   0.2478   0.0934     N
H       0.0987   0.9491   0.6436     H
H       0.1072    0.114   0.6944     H
C       0.1099   0.4405   0.9948     C
C       0.1102    0.189   0.1326     C
C        0.113   0.6782   0.4098     C
O       0.1137   0.4888   0.0333     O
C        0.115   0.8647   0.1173     C
C       0.1166   0.9143   0.0141     C
O       0.1246   0.8116   0.5326     O
H         0.13   0.4572   0.3016     H
H       0.1319   0.7989    0.917     H
C       0.1329   0.2031   0.3153     C
H       0.1333   0.6368   0.9671     H
C       0.1352   0.0228   0.0049     C
C       0.1374   0.5524   0.6571     C
H       0.1416   0.8612   0.2123     H
C       0.1435   0.5227   0.1945     C
C       0.1444   0.5191   0.7045     C
C       0.1569   0.4835   0.1496     C
O         0.16   0.3492   0.9887     O
H       0.1617   0.6256   0.2691     H
C       0.1644   0.7935   0.0809     C
H       0.1657   0.4091    0.531     H
H       0.1867    0.904   0.1304     H
H       0.1882   0.1921   0.1482     H
H       0.1904   0.3801   0.7793     H
H       0.1907    0.676   0.4256     H
H       0.2037   0.1607   0.3223     H
C       0.2099   0.5448   0.3546     C
C         0.21   0.8491   0.0382     C
C        0.211   0.4923   0.3074     C
H       0.2116   0.0551    0.014     H
H        0.212   0.4134    0.857     H
H       0.2163   0.4877   0.3775     H
H       0.2183   0.1054   0.5467     H
H       0.2216   0.5614   0.8061     H
Cd     0.23319  0.65171  0.56091    Cd
H       0.2346    0.752   0.0937     H
C        0.235   0.5778    0.271     C
N       0.2365   0.5544   0.6312     N
H       0.2417   0.7954   0.0166     H
C       0.2431   0.4796   0.7225     C
C       0.2569   0.5204   0.2225     C
H       0.2583   0.2046   0.5166     H
N       0.2635   0.4456   0.1312     N
C        0.265   0.4222    0.771     C
H       0.2654    0.248   0.5937     H
Cd     0.26681  0.34829  0.06091    Cd
H       0.2784   0.4386   0.3061     H
H       0.2817   0.8946   0.0467     H
H       0.2837   0.5123   0.8775     H
H        0.288   0.5866    0.357     H
H       0.2884   0.9449    0.514     H
C        0.289   0.5077   0.8074     C
C         0.29   0.1509   0.5382     C
C       0.2901   0.4552   0.8546     C
H       0.2963   0.8393   0.8223     H
H       0.3093    0.324   0.9256     H
H       0.3096   0.6199   0.2793     H
H       0.3118   0.8079   0.6482     H
H       0.3133    0.096   0.6304     H
H       0.3343   0.5909    0.031     H
C       0.3356   0.2065   0.5809     C
H       0.3383   0.3744   0.7691     H
O         0.34   0.6508   0.4887     O
C       0.3431   0.5165   0.6496     C
C       0.3556   0.4809   0.2045     C
C       0.3565   0.4773   0.6945     C
H       0.3584   0.1388   0.7123     H
C       0.3626   0.4476   0.1571     C
C       0.3648   0.9772   0.5049     C
H       0.3667   0.3632   0.4671     H
C       0.3671   0.7969   0.8153     C
H       0.3681   0.2011    0.417     H
H         0.37   0.5428   0.8016     H
O       0.3754   0.1884   0.0326     O
C       0.3834   0.0857   0.5141     C
C        0.385   0.1353   0.6173     C
O       0.3863   0.5112   0.5333     O
C        0.387   0.3218   0.9098     C
C       0.3898    0.811   0.6326     C
C       0.3901   0.5595   0.4948     C
H       0.3928    0.886   0.1944     H
H       0.4013   0.0509   0.1436     H
N       0.4017   0.7522   0.5934     N
C       0.4019   0.3808   0.8704     C
N       0.4022   0.7843   0.7716     N
H       0.4027   0.2565   0.5721     H
H       0.4051   0.7563   0.8817     H
C       0.4113   0.5603   0.0217     C
C       0.4131   0.4007   0.4447     C
C        0.415   0.2389   0.3949     C
H       0.4155    0.516   0.6308     H
O       0.4209   0.2363   0.1044     O
C       0.4226   0.1703   0.0727     C
H       0.4279    0.473   0.2231     H
N       0.4294   0.4586   0.0308     N
C       0.4302   0.1773   0.7029     C
H       0.4303   0.1188    0.349     H
C       0.4339   0.7481   0.8512     C
H        0.434   0.4512   0.7057     H
H       0.4392   0.8446   0.4769     H
H       0.4411   0.4268   0.1447     H
H       0.4412   0.0833   0.6027     H
C       0.4424   0.8505   0.1723     C
C       0.4445   0.5054   0.4524     C
C       0.4463   0.0123   0.1212     C
C       0.4498   0.3484   0.4032     C
C        0.451   0.1904   0.3543     C
C       0.4561   0.9167   0.4828     C
C       0.4572   0.1873   0.6572     C
H       0.4613   0.7152   0.2077     H
H       0.4636   0.9108   0.6778     H
H       0.4724    0.217   0.9539     H
H       0.4774   0.6962    0.993     H
C         0.48   0.8725   0.6506     C
C       0.4802   0.0585   0.0805     C
C       0.4805    0.904   0.1292     C
C       0.4808   0.7482   0.1794     C
C       0.4864   0.2574    0.927     C
H       0.4882   0.2051   0.7657     H
C        0.494   0.7222   0.7652     C
C       0.4984    0.625   0.9993     C
C       0.5016    0.125   0.5007     C
C        0.506   0.2222   0.7348     C
H       0.5118   0.7051   0.7343     H
C       0.5136   0.7574    0.573     C
C       0.5192   0.2482   0.3206     C
C       0.5195    0.404   0.3708     C
C       0.5198   0.5585   0.4195     C
C         0.52   0.3725   0.8494     C
H       0.5226   0.1962    0.507     H
H       0.5276    0.717   0.5461     H
H       0.5364   0.4108   0.8222     H
H       0.5387   0.2152   0.2923     H
C       0.5428   0.6873   0.8428     C
C       0.5439   0.4167   0.0172     C
C        0.549   0.6904   0.1457     C
C       0.5502   0.8484   0.0968     C
C       0.5537   0.5123   0.3788     C
C       0.5555   0.0054   0.0476     C
C       0.5576   0.3505   0.3277     C
H       0.5588   0.5833   0.8973     H
H       0.5589   0.9268   0.3553     H
H       0.5608   0.3446   0.0231     H
H        0.566   0.9512   0.7943     H
C       0.5661   0.2481   0.6488     C
H       0.5697   0.6188    0.151     H
C       0.5698   0.6773   0.7971     C
N       0.5706   0.9586   0.4692     N
H       0.5721    0.973   0.2769     H
C       0.5774   0.6703   0.4273     C
O       0.5791   0.7363   0.3956     O
H       0.5845    0.016   0.8692     H
C        0.585   0.7389   0.1051     C
C       0.5869   0.9007   0.0553     C
C       0.5887   0.0603   0.4783     C
H       0.5949   0.2563   0.6183     H
H       0.5973   0.7565   0.9279     H
N       0.5978   0.2843   0.7284     N
C       0.5981   0.8808   0.6296     C
N       0.5983   0.2522   0.9066     N
H       0.5987   0.5509   0.3564     H
H       0.6072    0.386   0.3056     H
C       0.6099   0.0595   0.0052     C
C       0.6102    0.311   0.8674     C
C        0.613   0.8218   0.5902     C
O       0.6137   0.0112   0.9667     O
C        0.615   0.6353   0.8827     C
C       0.6166   0.5857   0.9859     C
O       0.6246   0.6884   0.4674     O
H         0.63   0.0428   0.6984     H
H       0.6319   0.7011    0.083     H
C       0.6329   0.2969   0.6847     C
H       0.6333   0.8632   0.0329     H
C       0.6352   0.4772   0.9951     C
C       0.6374   0.9476   0.3429     C
H       0.6416   0.6388   0.7877     H
C       0.6435   0.9773   0.8055     C
C       0.6444   0.9809   0.2955     C
C       0.6569   0.0165   0.8504     C
O         0.66   0.1508   0.0113     O
H       0.6617   0.8744   0.7309     H
C       0.6644   0.7065   0.9191     C
H       0.6657   0.0909    0.469     H
H       0.6867    0.596   0.8696     H
H       0.6882   0.3079   0.8518     H
H       0.6904   0.1199   0.2207     H
H       0.6907    0.824   0.5744     H
H       0.7037   0.3393   0.6777     H
C       0.7099   0.9552   0.6454     C
C         0.71   0.6509   0.9618     C
C        0.711   0.0077   0.6926     C
H       0.7116   0.4449    0.986     H
H        0.712   0.0866    0.143     H
H       0.7163   0.0123   0.6225     H
H       0.7183   0.3946   0.4533     H
H       0.7216   0.9386   0.1939     H
Cd     0.73319  0.84829  0.43909    Cd
H       0.7346    0.748   0.9063     H
C        0.735   0.9222    0.729     C
N       0.7365   0.9456   0.3688     N
H       0.7417   0.7046   0.9834     H
C       0.7431   0.0204   0.2775     C
C       0.7569   0.9796   0.7775     C
H       0.7583   0.2954   0.4834     H
N       0.7635   0.0544   0.8688     N
C        0.765   0.0778    0.229     C
H       0.7654    0.252   0.4063     H
Cd     0.76681  0.15171  0.93909    Cd
H       0.7784   0.0614   0.6939     H
H       0.7817   0.6054   0.9533     H
H       0.7837   0.9877   0.1225     H
H        0.788   0.9134    0.643     H
H       0.7884   0.5551    0.486     H
C        0.789   0.9923   0.1926     C
C         0.79   0.3491   0.4618     C
C       0.7901   0.0448   0.1454     C
H       0.7963   0.6607   0.1777     H
H       0.8093    0.176   0.0744     H
H       0.8096   0.8801   0.7207     H
H       0.8118   0.6921   0.3518     H
H       0.8133    0.404   0.3696     H
H       0.8343   0.9091    0.969     H
C       0.8356   0.2935   0.4191     C
H       0.8383   0.1256   0.2309     H
O         0.84   0.8492   0.5113     O
C       0.8431   0.9835   0.3504     C
C       0.8556   0.0191   0.7955     C
C       0.8565   0.0227   0.3055     C
H       0.8584   0.3612   0.2877     H
C       0.8626   0.0524   0.8429     C
C       0.8648   0.5228   0.4951     C
H       0.8667   0.1368   0.5329     H
C       0.8671   0.7031   0.1847     C
H       0.8681   0.2989    0.583     H
H         0.87   0.9572   0.1984     H
O       0.8754   0.3116   0.9674     O
C       0.8834   0.4143   0.4859     C
C        0.885   0.3647   0.3827     C
O       0.8863   0.9888   0.4667     O
C        0.887   0.1782   0.0902     C
C       0.8898    0.689   0.3674     C
C       0.8901   0.9405   0.5052     C
H       0.8928    0.614   0.8056     H
H       0.9013   0.4491   0.8564     H
N       0.9017   0.7478   0.4066     N
C       0.9019   0.1192   0.1296     C
N       0.9022   0.7157   0.2284     N
H       0.9027   0.2435   0.4279     H
H       0.9051   0.7437   0.1183     H
C       0.9113   0.9397   0.9783     C
C       0.9131   0.0993   0.5553     C
C        0.915   0.2611   0.6051     C
H       0.9155    0.984   0.3692     H
O       0.9209   0.2637   0.8956     O
C       0.9226   0.3297   0.9273     C
H       0.9279    0.027   0.7769     H
N       0.9294   0.0414   0.9692     N
C       0.9302   0.3227   0.2971     C
H       0.9303   0.3812    0.651     H
C       0.9339   0.7519   0.1488     C
H        0.934   0.0488   0.2943     H
H       0.9392   0.6554   0.5231     H
H       0.9411   0.0732   0.8553     H
H       0.9412   0.4167   0.3973     H
C       0.9424   0.6495   0.8277     C
C       0.9445   0.9946   0.5476     C
C       0.9463   0.4877   0.8788     C
C       0.9498   0.1516   0.5968     C
C        0.951   0.3096   0.6457     C
C       0.9561   0.5833   0.5172     C
C       0.9572   0.3127   0.3428     C
H       0.9613   0.7848   0.7923     H
H       0.9636   0.5892   0.3222     H
H       0.9724    0.283   0.0461     H
H       0.9774   0.8038    0.007     H
C         0.98   0.6275   0.3494     C
C       0.9802   0.4415   0.9195     C
C       0.9805    0.596   0.8708     C
C       0.9808   0.7518   0.8206     C
C       0.9864   0.2426    0.073     C
H       0.9882   0.2949   0.2343     H
C        0.994   0.7778   0.2348     C
C       0.9984    0.875   0.0007     C
