data_I
_chemical_name_common  '/home/zhangsd/repos/MofS-CGCNN/ML/data/WS24/clean_cifs/UQEGEE'
_cell_length_a 16.15400
_cell_length_b 33.51000
_cell_length_c 41.62300
_cell_angle_alpha 90.00000
_cell_angle_beta  90.00000
_cell_angle_gamma 90.00000
_space_group_name_H-M_alt      'P 1'


loop_
_space_group_symop_operation_xyz
  'x, y, z' 

loop_
_atom_site_label
_atom_site_fract_x
_atom_site_fract_y
_atom_site_fract_z
_atom_site_type_symbol
C       0.0006   0.3039   0.9248     C
C       0.0006   0.4461   0.8252     C
C       0.0006   0.8039   0.4248     C
C       0.0006   0.9461   0.3252     C
H       0.0024   0.0086   0.7746     H
H       0.0024   0.2414   0.4754     H
H       0.0024   0.5086   0.2746     H
H       0.0024   0.7414   0.9754     H
H       0.0069   0.2858   0.9941     H
H       0.0069   0.4642   0.7559     H
H       0.0069   0.7858   0.4941     H
H       0.0069   0.9642   0.2559     H
H       0.0183   0.3273   0.9134     H
H       0.0183   0.4227   0.8366     H
H       0.0183   0.8273   0.4134     H
H       0.0183   0.9227   0.3366     H
C         0.02   0.1243   0.7736     C
C         0.02   0.1257   0.4764     C
C         0.02   0.6243   0.2736     C
C         0.02   0.6257   0.9764     C
H       0.0205    0.305   0.9465     H
H       0.0205    0.445   0.8035     H
H       0.0205    0.805   0.4465     H
H       0.0205    0.945   0.3035     H
C       0.0223   0.0996   0.5062     C
C       0.0223   0.1504   0.7438     C
C       0.0223   0.5996   0.0062     C
C       0.0223   0.6504   0.2438     C
H       0.0224   0.2805   0.9144     H
H       0.0224   0.4695   0.8356     H
H       0.0224   0.7805   0.4144     H
H       0.0224   0.9695   0.3356     H
Mo      0.0298  0.29779  0.37761    Mo
N       0.0298   0.3357   0.0595     N
N       0.0298   0.4143   0.6905     N
Mo      0.0298  0.45221  0.37239    Mo
Mo      0.0298  0.79779  0.87761    Mo
N       0.0298   0.8357   0.5595     N
N       0.0298   0.9143   0.1905     N
Mo      0.0298  0.95221  0.87239    Mo
H       0.0305   0.3505   0.7667     H
H       0.0305   0.3995   0.9833     H
H       0.0305   0.8505   0.2667     H
H       0.0305   0.8995   0.4833     H
Mo     0.03053  0.37255  0.43664    Mo
Mo     0.03053  0.37745  0.31336    Mo
Mo     0.03053  0.87255  0.93664    Mo
Mo     0.03053  0.87745  0.81336    Mo
C       0.0308   0.0196   0.7564     C
C       0.0308   0.2304   0.4936     C
C       0.0308   0.5196   0.2564     C
C       0.0308   0.7304   0.9936     C
O       0.0309   0.0251   0.1622     O
O       0.0309   0.2249   0.0878     O
O       0.0309   0.5251   0.6622     O
O       0.0309   0.7249   0.5878     O
C       0.0312   0.0318   0.5663     C
C       0.0312   0.2182   0.6837     C
C       0.0312   0.5318   0.0663     C
C       0.0312   0.7182   0.1837     C
N       0.0319   0.0657   0.5835     N
N       0.0319   0.1843   0.6665     N
N       0.0319   0.5657   0.0835     N
N       0.0319   0.6843   0.1665     N
H       0.0322   0.3116   0.6697     H
H       0.0322   0.4384   0.0803     H
H       0.0322   0.8116   0.1697     H
H       0.0322   0.9384   0.5803     H
H       0.0345   0.0726   0.5001     H
H       0.0345   0.1774   0.7499     H
H       0.0345   0.5726   0.0001     H
H       0.0345   0.6774   0.2499     H
H       0.0397   0.0586   0.8588     H
H       0.0397   0.1914   0.3912     H
H       0.0397   0.5586   0.3588     H
H       0.0397   0.6914   0.8912     H
O       0.0431   0.0837   0.2082     O
O       0.0431   0.1663   0.0418     O
O       0.0431   0.5837   0.7082     O
O       0.0431   0.6663   0.5418     O
C       0.0478   0.2636   0.8055     C
C       0.0478   0.4864   0.9445     C
C       0.0478   0.7636   0.3055     C
C       0.0478   0.9864   0.4445     C
N       0.0481   0.3016   0.5071     N
N       0.0481   0.4484   0.2429     N
N       0.0481   0.8016   0.0071     N
N       0.0481   0.9484   0.7429     N
C       0.0489   0.0923   0.8189     C
C       0.0489   0.1577   0.4311     C
C       0.0489   0.5923   0.3189     C
C       0.0489   0.6577   0.9311     C
N       0.0493    0.355   0.0319     N
N       0.0493    0.395   0.7181     N
N       0.0493    0.855   0.5319     N
N       0.0493    0.895   0.2181     N
H       0.0505   0.2639   0.7825     H
H       0.0505   0.4861   0.9675     H
H       0.0505   0.7639   0.2825     H
H       0.0505   0.9861   0.4675     H
H       0.0507   0.0135    0.437     H
H       0.0507   0.2365    0.813     H
H       0.0507   0.5135    0.937     H
H       0.0507   0.7365    0.313     H
O       0.0533    0.116   0.9887     O
O       0.0533    0.134   0.2613     O
O       0.0533    0.616   0.4887     O
O       0.0533    0.634   0.7613     O
O       0.0536    0.035  0.09773     O
O       0.0536    0.215  0.15227     O
O       0.0536    0.535  0.59773     O
O       0.0536    0.715  0.65227     O
O       0.0561    0.091  0.05213     O
O       0.0561    0.159  0.19787     O
O       0.0561    0.591  0.55213     O
O       0.0561    0.659  0.69787     O
C       0.0629   0.2633   0.5142     C
C       0.0629   0.4867   0.2358     C
C       0.0629   0.7633   0.0142     C
C       0.0629   0.9867   0.7358     C
H       0.0644   0.1092   0.5205     H
H       0.0644   0.1408   0.7295     H
H       0.0644   0.6092   0.0205     H
H       0.0644   0.6408   0.2295     H
O       0.0672   0.3402   0.3468     O
O       0.0672   0.4098   0.4032     O
O       0.0672   0.8402   0.8468     O
O       0.0672   0.9098   0.9032     O
O        0.068   0.0993   0.9514     O
O        0.068   0.1507   0.2986     O
O        0.068   0.5993   0.4514     O
O        0.068   0.6507   0.7986     O
O       0.0696   0.0988  0.14624     O
O       0.0696   0.1512  0.10376     O
O       0.0696   0.5988  0.64624     O
O       0.0696   0.6512  0.60376     O
H       0.0761   0.0358   0.7637     H
H       0.0761   0.2142   0.4863     H
H       0.0761   0.5358   0.2637     H
H       0.0761   0.7142   0.9863     H
Co     0.07734  0.36206  0.23134    Co
Co     0.07734  0.38794  0.51866    Co
Co     0.07734  0.86206  0.73134    Co
Co     0.07734  0.88794  0.01866    Co
N       0.0807   0.3264    0.529     N
N       0.0807   0.4236    0.221     N
N       0.0807   0.8264    0.029     N
N       0.0807   0.9236    0.721     N
C       0.0817   0.0747   0.8489     C
C       0.0817   0.1753   0.4011     C
C       0.0817   0.5747   0.3489     C
C       0.0817   0.6753   0.9011     C
C       0.0837    0.117   0.7959     C
C       0.0837    0.133   0.4541     C
C       0.0837    0.617   0.2959     C
C       0.0837    0.633   0.9541     C
C        0.089     0.32   0.6697     C
C        0.089     0.43   0.0803     C
C        0.089     0.82   0.1697     C
C        0.089     0.93   0.5803     C
O       0.0895    0.335  0.40721     O
O       0.0895    0.415  0.34279     O
O       0.0895    0.835  0.90721     O
O       0.0895    0.915  0.84279     O
C       0.0913    0.052   0.6749     C
C       0.0913    0.198   0.5751     C
C       0.0913    0.552   0.1749     C
C       0.0913    0.698   0.0751     C
H       0.0915   0.3486   0.6704     H
H       0.0915   0.4014   0.0796     H
H       0.0915   0.8486   0.1704     H
H       0.0915   0.9014   0.5796     H
H       0.0934   0.2785   0.8142     H
O       0.0934   0.3724   0.2827     O
O       0.0934   0.3776   0.4673     O
H       0.0934   0.4715   0.9358     H
H       0.0934   0.7785   0.3142     H
O       0.0934   0.8724   0.7827     O
O       0.0934   0.8776   0.9673     O
H       0.0934   0.9715   0.4358     H
H       0.0981   0.0956   0.8633     H
H       0.0981   0.1544   0.3867     H
H       0.0981   0.5956   0.3633     H
H       0.0981   0.6544   0.8867     H
C       0.1075   0.2636    0.543     C
C       0.1075   0.4864    0.207     C
C       0.1075   0.7636    0.043     C
C       0.1075   0.9864    0.707     C
N       0.1097   0.0785   0.5894     N
N       0.1097   0.1715   0.6606     N
N       0.1097   0.5785   0.0894     N
N       0.1097   0.6715   0.1606     N
C        0.112   0.0215   0.5606     C
O        0.112   0.1105   0.3193     O
O        0.112   0.1395   0.9307     O
C        0.112   0.2285   0.6894     C
C        0.112   0.5215   0.0606     C
O        0.112   0.6105   0.8193     O
O        0.112   0.6395   0.4307     O
C        0.112   0.7285   0.1894     C
H       0.1156   0.3106   0.6505     H
H       0.1156   0.4394   0.0995     H
H       0.1156   0.8106   0.1505     H
H       0.1156   0.9394   0.5995     H
C       0.1174    0.303   0.5513     C
C       0.1174    0.447   0.1987     C
C       0.1174    0.803   0.0513     C
C       0.1174    0.947   0.6987     C
Mo     0.11951    0.048  0.18467    Mo
Mo     0.11951    0.202  0.06533    Mo
Mo     0.11951    0.548  0.68467    Mo
Mo     0.11951    0.702  0.56533    Mo
H       0.1212   0.0583   0.4061     H
H       0.1212   0.1917   0.8439     H
H       0.1212   0.5583   0.9061     H
H       0.1212   0.6917   0.3439     H
V      0.12471    0.375    0.375     V
V      0.12471    0.875    0.875     V
V        0.125    0.125  0.02629     V
P        0.125    0.125    0.125     P
V        0.125    0.125  0.22371     V
S        0.125    0.125   0.2889     S
Co       0.125    0.125    0.625    Co
S        0.125    0.125   0.9611     S
Co       0.125    0.625    0.125    Co
S        0.125    0.625   0.4611     S
V        0.125    0.625  0.52629     V
P        0.125    0.625    0.625     P
V        0.125    0.625  0.72371     V
S        0.125    0.625   0.7889     S
V      0.12529    0.375    0.875     V
V      0.12529    0.875    0.375     V
H       0.1288   0.0583   0.8439     H
H       0.1288   0.1917   0.4061     H
H       0.1288   0.5583   0.3439     H
H       0.1288   0.6917   0.9061     H
Mo     0.13049    0.048  0.06533    Mo
Mo     0.13049    0.202  0.18467    Mo
Mo     0.13049    0.548  0.56533    Mo
Mo     0.13049    0.702  0.68467    Mo
C       0.1326    0.303   0.6987     C
C       0.1326    0.447   0.0513     C
C       0.1326    0.803   0.1987     C
C       0.1326    0.947   0.5513     C
H       0.1344   0.3106   0.5995     H
H       0.1344   0.4394   0.1505     H
H       0.1344   0.8106   0.0995     H
H       0.1344   0.9394   0.6505     H
C        0.138   0.0215   0.6894     C
O        0.138   0.1105   0.9307     O
O        0.138   0.1395   0.3193     O
C        0.138   0.2285   0.5606     C
C        0.138   0.5215   0.1894     C
O        0.138   0.6105   0.4307     O
O        0.138   0.6395   0.8193     O
C        0.138   0.7285   0.0606     C
N       0.1403   0.0785   0.6606     N
N       0.1403   0.1715   0.5894     N
N       0.1403   0.5785   0.1606     N
N       0.1403   0.6715   0.0894     N
C       0.1425   0.2636    0.707     C
C       0.1425   0.4864    0.043     C
C       0.1425   0.7636    0.207     C
C       0.1425   0.9864    0.543     C
H       0.1519   0.0956   0.3867     H
H       0.1519   0.1544   0.8633     H
H       0.1519   0.5956   0.8867     H
H       0.1519   0.6544   0.3633     H
H       0.1566   0.2785   0.4358     H
O       0.1566   0.3724   0.9673     O
O       0.1566   0.3776   0.7827     O
H       0.1566   0.4715   0.3142     H
H       0.1566   0.7785   0.9358     H
O       0.1566   0.8724   0.4673     O
O       0.1566   0.8776   0.2827     O
H       0.1566   0.9715   0.8142     H
H       0.1585   0.3486   0.5796     H
H       0.1585   0.4014   0.1704     H
H       0.1585   0.8486   0.0796     H
H       0.1585   0.9014   0.6704     H
C       0.1587    0.052   0.5751     C
C       0.1587    0.198   0.6749     C
C       0.1587    0.552   0.0751     C
C       0.1587    0.698   0.1749     C
O       0.1605    0.335  0.84279     O
O       0.1605    0.415  0.90721     O
O       0.1605    0.835  0.34279     O
O       0.1605    0.915  0.40721     O
C        0.161     0.32   0.5803     C
C        0.161     0.43   0.1697     C
C        0.161     0.82   0.0803     C
C        0.161     0.93   0.6697     C
C       0.1663    0.117   0.4541     C
C       0.1663    0.133   0.7959     C
C       0.1663    0.617   0.9541     C
C       0.1663    0.633   0.2959     C
C       0.1683   0.0747   0.4011     C
C       0.1683   0.1753   0.8489     C
C       0.1683   0.5747   0.9011     C
C       0.1683   0.6753   0.3489     C
N       0.1693   0.3264    0.721     N
N       0.1693   0.4236    0.029     N
N       0.1693   0.8264    0.221     N
N       0.1693   0.9236    0.529     N
Co     0.17266  0.36206  0.01866    Co
Co     0.17266  0.38794  0.73134    Co
Co     0.17266  0.86206  0.51866    Co
Co     0.17266  0.88794  0.23134    Co
H       0.1739   0.0358   0.4863     H
H       0.1739   0.2142   0.7637     H
H       0.1739   0.5358   0.9863     H
H       0.1739   0.7142   0.2637     H
O       0.1804   0.0988  0.10376     O
O       0.1804   0.1512  0.14624     O
O       0.1804   0.5988  0.60376     O
O       0.1804   0.6512  0.64624     O
O        0.182   0.0993   0.2986     O
O        0.182   0.1507   0.9514     O
O        0.182   0.5993   0.7986     O
O        0.182   0.6507   0.4514     O
O       0.1828   0.3402   0.9032     O
O       0.1828   0.4098   0.8468     O
O       0.1828   0.8402   0.4032     O
O       0.1828   0.9098   0.3468     O
H       0.1856   0.1092   0.7295     H
H       0.1856   0.1408   0.5205     H
H       0.1856   0.6092   0.2295     H
H       0.1856   0.6408   0.0205     H
C       0.1871   0.2633   0.7358     C
C       0.1871   0.4867   0.0142     C
C       0.1871   0.7633   0.2358     C
C       0.1871   0.9867   0.5142     C
O       0.1939    0.091  0.19787     O
O       0.1939    0.159  0.05213     O
O       0.1939    0.591  0.69787     O
O       0.1939    0.659  0.55213     O
O       0.1964    0.035  0.15227     O
O       0.1964    0.215  0.09773     O
O       0.1964    0.535  0.65227     O
O       0.1964    0.715  0.59773     O
O       0.1967    0.116   0.2613     O
O       0.1967    0.134   0.9887     O
O       0.1967    0.616   0.7613     O
O       0.1967    0.634   0.4887     O
H       0.1993   0.0135    0.813     H
H       0.1993   0.2365    0.437     H
H       0.1993   0.5135    0.313     H
H       0.1993   0.7365    0.937     H
H       0.1995   0.2639   0.4675     H
H       0.1995   0.4861   0.2825     H
H       0.1995   0.7639   0.9675     H
H       0.1995   0.9861   0.7825     H
N       0.2007    0.355   0.2181     N
N       0.2007    0.395   0.5319     N
N       0.2007    0.855   0.7181     N
N       0.2007    0.895   0.0319     N
C       0.2011   0.0923   0.4311     C
C       0.2011   0.1577   0.8189     C
C       0.2011   0.5923   0.9311     C
C       0.2011   0.6577   0.3189     C
N       0.2019   0.3016   0.7429     N
N       0.2019   0.4484   0.0071     N
N       0.2019   0.8016   0.2429     N
N       0.2019   0.9484   0.5071     N
C       0.2022   0.2636   0.4445     C
C       0.2022   0.4864   0.3055     C
C       0.2022   0.7636   0.9445     C
C       0.2022   0.9864   0.8055     C
O       0.2069   0.0837   0.0418     O
O       0.2069   0.1663   0.2082     O
O       0.2069   0.5837   0.5418     O
O       0.2069   0.6663   0.7082     O
H       0.2103   0.0586   0.3912     H
H       0.2103   0.1914   0.8588     H
H       0.2103   0.5586   0.8912     H
H       0.2103   0.6914   0.3588     H
H       0.2155   0.0726   0.7499     H
H       0.2155   0.1774   0.5001     H
H       0.2155   0.5726   0.2499     H
H       0.2155   0.6774   0.0001     H
H       0.2178   0.3116   0.5803     H
H       0.2178   0.4384   0.1697     H
H       0.2178   0.8116   0.0803     H
H       0.2178   0.9384   0.6697     H
N       0.2181   0.0657   0.6665     N
N       0.2181   0.1843   0.5835     N
N       0.2181   0.5657   0.1665     N
N       0.2181   0.6843   0.0835     N
C       0.2188   0.0318   0.6837     C
C       0.2188   0.2182   0.5663     C
C       0.2188   0.5318   0.1837     C
C       0.2188   0.7182   0.0663     C
O       0.2191   0.0251   0.0878     O
O       0.2191   0.2249   0.1622     O
O       0.2191   0.5251   0.5878     O
O       0.2191   0.7249   0.6622     O
C       0.2192   0.0196   0.4936     C
C       0.2192   0.2304   0.7564     C
C       0.2192   0.5196   0.9936     C
C       0.2192   0.7304   0.2564     C
Mo     0.21947  0.37255  0.81336    Mo
Mo     0.21947  0.37745  0.93664    Mo
Mo     0.21947  0.87255  0.31336    Mo
Mo     0.21947  0.87745  0.43664    Mo
H       0.2195   0.3505   0.4833     H
H       0.2195   0.3995   0.2667     H
H       0.2195   0.8505   0.9833     H
H       0.2195   0.8995   0.7667     H
Mo      0.2202  0.29779  0.87239    Mo
N       0.2202   0.3357   0.1905     N
N       0.2202   0.4143   0.5595     N
Mo      0.2202  0.45221  0.87761    Mo
Mo      0.2202  0.79779  0.37239    Mo
N       0.2202   0.8357   0.6905     N
N       0.2202   0.9143   0.0595     N
Mo      0.2202  0.95221  0.37761    Mo
H       0.2276   0.2805   0.3356     H
H       0.2276   0.4695   0.4144     H
H       0.2276   0.7805   0.8356     H
H       0.2276   0.9695   0.9144     H
C       0.2277   0.0996   0.7438     C
C       0.2277   0.1504   0.5062     C
C       0.2277   0.5996   0.2438     C
C       0.2277   0.6504   0.0062     C
H       0.2295    0.305   0.3035     H
H       0.2295    0.445   0.4465     H
H       0.2295    0.805   0.8035     H
H       0.2295    0.945   0.9465     H
C         0.23   0.1243   0.4764     C
C         0.23   0.1257   0.7736     C
C         0.23   0.6243   0.9764     C
C         0.23   0.6257   0.2736     C
H       0.2317   0.3273   0.3366     H
H       0.2317   0.4227   0.4134     H
H       0.2317   0.8273   0.8366     H
H       0.2317   0.9227   0.9134     H
H       0.2431   0.2858   0.2559     H
H       0.2431   0.4642   0.4941     H
H       0.2431   0.7858   0.7559     H
H       0.2431   0.9642   0.9941     H
H       0.2476   0.0086   0.4754     H
H       0.2476   0.2414   0.7746     H
H       0.2476   0.5086   0.9754     H
H       0.2476   0.7414   0.2746     H
C       0.2494   0.3039   0.3252     C
C       0.2494   0.4461   0.4248     C
C       0.2494   0.8039   0.8252     C
C       0.2494   0.9461   0.9248     C
C       0.2506   0.0539   0.5752     C
C       0.2506   0.1961   0.6748     C
C       0.2506   0.5539   0.0752     C
C       0.2506   0.6961   0.1748     C
H       0.2524   0.2586   0.2254     H
H       0.2524   0.4914   0.5246     H
H       0.2524   0.7586   0.7254     H
H       0.2524   0.9914   0.0246     H
H       0.2569   0.0358   0.5059     H
H       0.2569   0.2142   0.7441     H
H       0.2569   0.5358   0.0059     H
H       0.2569   0.7142   0.2441     H
H       0.2683   0.0773   0.5866     H
H       0.2683   0.1727   0.6634     H
H       0.2683   0.5773   0.0866     H
H       0.2683   0.6727   0.1634     H
C         0.27   0.3743   0.2264     C
C         0.27   0.3757   0.5236     C
C         0.27   0.8743   0.7264     C
C         0.27   0.8757   0.0236     C
H       0.2705    0.055   0.5535     H
H       0.2705    0.195   0.6965     H
H       0.2705    0.555   0.0535     H
H       0.2705    0.695   0.1965     H
C       0.2723   0.3496   0.4938     C
C       0.2723   0.4004   0.2562     C
C       0.2723   0.8496   0.9938     C
C       0.2723   0.9004   0.7562     C
H       0.2724   0.0305   0.5856     H
H       0.2724   0.2195   0.6644     H
H       0.2724   0.5305   0.0856     H
H       0.2724   0.7195   0.1644     H
Mo      0.2798  0.04779  0.12239    Mo
N       0.2798   0.0857   0.4405     N
N       0.2798   0.1643   0.8095     N
Mo      0.2798  0.20221  0.12761    Mo
Mo      0.2798  0.54779  0.62239    Mo
N       0.2798   0.5857   0.9405     N
N       0.2798   0.6643   0.3095     N
Mo      0.2798  0.70221  0.62761    Mo
H       0.2805   0.1005   0.7333     H
H       0.2805   0.1495   0.5167     H
H       0.2805   0.6005   0.2333     H
H       0.2805   0.6495   0.0167     H
Mo     0.28053  0.12255  0.06336    Mo
Mo     0.28053  0.12745  0.18664    Mo
Mo     0.28053  0.62255  0.56336    Mo
Mo     0.28053  0.62745  0.68664    Mo
C       0.2808   0.2696   0.2436     C
C       0.2808   0.4804   0.5064     C
C       0.2808   0.7696   0.7436     C
C       0.2808   0.9804   0.0064     C
O       0.2809   0.2751   0.8378     O
O       0.2809   0.4749   0.9122     O
O       0.2809   0.7751   0.3378     O
O       0.2809   0.9749   0.4122     O
C       0.2812   0.2818   0.4337     C
C       0.2812   0.4682   0.3163     C
C       0.2812   0.7818   0.9337     C
C       0.2812   0.9682   0.8163     C
N       0.2819   0.3157   0.4165     N
N       0.2819   0.4343   0.3335     N
N       0.2819   0.8157   0.9165     N
N       0.2819   0.9343   0.8335     N
H       0.2822   0.0616   0.8303     H
H       0.2822   0.1884   0.4197     H
H       0.2822   0.5616   0.3303     H
H       0.2822   0.6884   0.9197     H
H       0.2845   0.3226   0.4999     H
H       0.2845   0.4274   0.2501     H
H       0.2845   0.8226   0.9999     H
H       0.2845   0.9274   0.7501     H
H       0.2897   0.3086   0.1412     H
H       0.2897   0.4414   0.6088     H
H       0.2897   0.8086   0.6412     H
H       0.2897   0.9414   0.1088     H
O       0.2931   0.3337   0.7918     O
O       0.2931   0.4163   0.9582     O
O       0.2931   0.8337   0.2918     O
O       0.2931   0.9163   0.4582     O
C       0.2978   0.0136   0.6945     C
C       0.2978   0.2364   0.5555     C
C       0.2978   0.5136   0.1945     C
C       0.2978   0.7364   0.0555     C
N       0.2981   0.0516   0.9929     N
N       0.2981   0.1984   0.2571     N
N       0.2981   0.5516   0.4929     N
N       0.2981   0.6984   0.7571     N
C       0.2989   0.3423   0.1811     C
C       0.2989   0.4077   0.5689     C
C       0.2989   0.8423   0.6811     C
C       0.2989   0.9077   0.0689     C
N       0.2993    0.105   0.4681     N
N       0.2993    0.145   0.7819     N
N       0.2993    0.605   0.9681     N
N       0.2993    0.645   0.2819     N
H       0.3005   0.0139   0.7175     H
H       0.3005   0.2361   0.5325     H
H       0.3005   0.5139   0.2175     H
H       0.3005   0.7361   0.0325     H
H       0.3007   0.2635    0.563     H
H       0.3007   0.4865    0.187     H
H       0.3007   0.7635    0.063     H
H       0.3007   0.9865    0.687     H
O       0.3033    0.366   0.0113     O
O       0.3033    0.384   0.7387     O
O       0.3033    0.866   0.5113     O
O       0.3033    0.884   0.2387     O
O       0.3036    0.285  0.90227     O
O       0.3036    0.465  0.84773     O
O       0.3036    0.785  0.40227     O
O       0.3036    0.965  0.34773     O
O       0.3061    0.341  0.94787     O
O       0.3061    0.409  0.80213     O
O       0.3061    0.841  0.44787     O
O       0.3061    0.909  0.30213     O
C       0.3129   0.0133   0.9858     C
C       0.3129   0.2367   0.2642     C
C       0.3129   0.5133   0.4858     C
C       0.3129   0.7367   0.7642     C
H       0.3144   0.3592   0.4795     H
H       0.3144   0.3908   0.2705     H
H       0.3144   0.8592   0.9795     H
H       0.3144   0.8908   0.7705     H
O       0.3172   0.0902   0.1532     O
O       0.3172   0.1598   0.0968     O
O       0.3172   0.5902   0.6532     O
O       0.3172   0.6598   0.5968     O
O        0.318   0.3493   0.0486     O
O        0.318   0.4007   0.7014     O
O        0.318   0.8493   0.5486     O
O        0.318   0.9007   0.2014     O
O       0.3196   0.3488  0.85376     O
O       0.3196   0.4012  0.89624     O
O       0.3196   0.8488  0.35376     O
O       0.3196   0.9012  0.39624     O
H       0.3261   0.2858   0.2363     H
H       0.3261   0.4642   0.5137     H
H       0.3261   0.7858   0.7363     H
H       0.3261   0.9642   0.0137     H
Co     0.32734  0.11206  0.26866    Co
Co     0.32734  0.13794  0.98134    Co
Co     0.32734  0.61206  0.76866    Co
Co     0.32734  0.63794  0.48134    Co
N       0.3307   0.0764    0.971     N
N       0.3307   0.1736    0.279     N
N       0.3307   0.5764    0.471     N
N       0.3307   0.6736    0.779     N
C       0.3317   0.3247   0.1511     C
C       0.3317   0.4253   0.5989     C
C       0.3317   0.8247   0.6511     C
C       0.3317   0.9253   0.0989     C
C       0.3337    0.367   0.2041     C
C       0.3337    0.383   0.5459     C
C       0.3337    0.867   0.7041     C
C       0.3337    0.883   0.0459     C
C        0.339     0.07   0.8303     C
C        0.339     0.18   0.4197     C
C        0.339     0.57   0.3303     C
C        0.339     0.68   0.9197     C
O       0.3395    0.085  0.09279     O
O       0.3395    0.165  0.15721     O
O       0.3395    0.585  0.59279     O
O       0.3395    0.665  0.65721     O
C       0.3413    0.302   0.3251     C
C       0.3413    0.448   0.4249     C
C       0.3413    0.802   0.8251     C
C       0.3413    0.948   0.9249     C
H       0.3415   0.0986   0.8296     H
H       0.3415   0.1514   0.4204     H
H       0.3415   0.5986   0.3296     H
H       0.3415   0.6514   0.9204     H
H       0.3434   0.0285   0.6858     H
O       0.3434   0.1224   0.2173     O
O       0.3434   0.1276   0.0327     O
H       0.3434   0.2215   0.5642     H
H       0.3434   0.5285   0.1858     H
O       0.3434   0.6224   0.7173     O
O       0.3434   0.6276   0.5327     O
H       0.3434   0.7215   0.0642     H
H       0.3481   0.3456   0.1367     H
H       0.3481   0.4044   0.6133     H
H       0.3481   0.8456   0.6367     H
H       0.3481   0.9044   0.1133     H
C       0.3575   0.0136    0.957     C
C       0.3575   0.2364    0.293     C
C       0.3575   0.5136    0.457     C
C       0.3575   0.7364    0.793     C
N       0.3597   0.3285   0.4106     N
N       0.3597   0.4215   0.3394     N
N       0.3597   0.8285   0.9106     N
N       0.3597   0.9215   0.8394     N
C        0.362   0.2715   0.4394     C
O        0.362   0.3605   0.6807     O
O        0.362   0.3895   0.0693     O
C        0.362   0.4785   0.3106     C
C        0.362   0.7715   0.9394     C
O        0.362   0.8605   0.1807     O
O        0.362   0.8895   0.5693     O
C        0.362   0.9785   0.8106     C
H       0.3656   0.0606   0.8495     H
H       0.3656   0.1894   0.4005     H
H       0.3656   0.5606   0.3495     H
H       0.3656   0.6894   0.9005     H
C       0.3674    0.053   0.9487     C
C       0.3674    0.197   0.3013     C
C       0.3674    0.553   0.4487     C
C       0.3674    0.697   0.8013     C
Mo     0.36951    0.298  0.81533    Mo
Mo     0.36951    0.452  0.93467    Mo
Mo     0.36951    0.798  0.31533    Mo
Mo     0.36951    0.952  0.43467    Mo
H       0.3712   0.3083   0.5939     H
H       0.3712   0.4417   0.1561     H
H       0.3712   0.8083   0.0939     H
H       0.3712   0.9417   0.6561     H
V      0.37471    0.125    0.125     V
V      0.37471    0.625    0.625     V
S        0.375    0.375   0.0389     S
Co       0.375    0.375    0.375    Co
S        0.375    0.375   0.7111     S
V        0.375    0.375  0.77629     V
P        0.375    0.375    0.875     P
V        0.375    0.375  0.97371     V
S        0.375    0.875   0.2111     S
V        0.375    0.875  0.27629     V
P        0.375    0.875    0.375     P
V        0.375    0.875  0.47371     V
S        0.375    0.875   0.5389     S
Co       0.375    0.875    0.875    Co
V      0.37529    0.125    0.625     V
V      0.37529    0.625    0.125     V
H       0.3788   0.3083   0.1561     H
H       0.3788   0.4417   0.5939     H
H       0.3788   0.8083   0.6561     H
H       0.3788   0.9417   0.0939     H
Mo     0.38049    0.298  0.93467    Mo
Mo     0.38049    0.452  0.81533    Mo
Mo     0.38049    0.798  0.43467    Mo
Mo     0.38049    0.952  0.31533    Mo
C       0.3826    0.053   0.8013     C
C       0.3826    0.197   0.4487     C
C       0.3826    0.553   0.3013     C
C       0.3826    0.697   0.9487     C
H       0.3844   0.0606   0.9005     H
H       0.3844   0.1894   0.3495     H
H       0.3844   0.5606   0.4005     H
H       0.3844   0.6894   0.8495     H
C        0.388   0.2715   0.3106     C
O        0.388   0.3605   0.0693     O
O        0.388   0.3895   0.6807     O
C        0.388   0.4785   0.4394     C
C        0.388   0.7715   0.8106     C
O        0.388   0.8605   0.5693     O
O        0.388   0.8895   0.1807     O
C        0.388   0.9785   0.9394     C
N       0.3903   0.3285   0.3394     N
N       0.3903   0.4215   0.4106     N
N       0.3903   0.8285   0.8394     N
N       0.3903   0.9215   0.9106     N
C       0.3925   0.0136    0.793     C
C       0.3925   0.2364    0.457     C
C       0.3925   0.5136    0.293     C
C       0.3925   0.7364    0.957     C
H       0.4019   0.3456   0.6133     H
H       0.4019   0.4044   0.1367     H
H       0.4019   0.8456   0.1133     H
H       0.4019   0.9044   0.6367     H
H       0.4066   0.0285   0.0642     H
O       0.4066   0.1224   0.5327     O
O       0.4066   0.1276   0.7173     O
H       0.4066   0.2215   0.1858     H
H       0.4066   0.5285   0.5642     H
O       0.4066   0.6224   0.0327     O
O       0.4066   0.6276   0.2173     O
H       0.4066   0.7215   0.6858     H
H       0.4085   0.0986   0.9204     H
H       0.4085   0.1514   0.3296     H
H       0.4085   0.5986   0.4204     H
H       0.4085   0.6514   0.8296     H
C       0.4087    0.302   0.4249     C
C       0.4087    0.448   0.3251     C
C       0.4087    0.802   0.9249     C
C       0.4087    0.948   0.8251     C
O       0.4105    0.085  0.65721     O
O       0.4105    0.165  0.59279     O
O       0.4105    0.585  0.15721     O
O       0.4105    0.665  0.09279     O
C        0.411     0.07   0.9197     C
C        0.411     0.18   0.3303     C
C        0.411     0.57   0.4197     C
C        0.411     0.68   0.8303     C
C       0.4163    0.367   0.5459     C
C       0.4163    0.383   0.2041     C
C       0.4163    0.867   0.0459     C
C       0.4163    0.883   0.7041     C
C       0.4183   0.3247   0.5989     C
C       0.4183   0.4253   0.1511     C
C       0.4183   0.8247   0.0989     C
C       0.4183   0.9253   0.6511     C
N       0.4193   0.0764    0.779     N
N       0.4193   0.1736    0.471     N
N       0.4193   0.5764    0.279     N
N       0.4193   0.6736    0.971     N
Co     0.42266  0.11206  0.48134    Co
Co     0.42266  0.13794  0.76866    Co
Co     0.42266  0.61206  0.98134    Co
Co     0.42266  0.63794  0.26866    Co
H       0.4239   0.2858   0.5137     H
H       0.4239   0.4642   0.2363     H
H       0.4239   0.7858   0.0137     H
H       0.4239   0.9642   0.7363     H
O       0.4304   0.3488  0.89624     O
O       0.4304   0.4012  0.85376     O
O       0.4304   0.8488  0.39624     O
O       0.4304   0.9012  0.35376     O
O        0.432   0.3493   0.7014     O
O        0.432   0.4007   0.0486     O
O        0.432   0.8493   0.2014     O
O        0.432   0.9007   0.5486     O
O       0.4328   0.0902   0.5968     O
O       0.4328   0.1598   0.6532     O
O       0.4328   0.5902   0.0968     O
O       0.4328   0.6598   0.1532     O
H       0.4356   0.3592   0.2705     H
H       0.4356   0.3908   0.4795     H
H       0.4356   0.8592   0.7705     H
H       0.4356   0.8908   0.9795     H
C       0.4371   0.0133   0.7642     C
C       0.4371   0.2367   0.4858     C
C       0.4371   0.5133   0.2642     C
C       0.4371   0.7367   0.9858     C
O       0.4439    0.341  0.80213     O
O       0.4439    0.409  0.94787     O
O       0.4439    0.841  0.30213     O
O       0.4439    0.909  0.44787     O
O       0.4464    0.285  0.84773     O
O       0.4464    0.465  0.90227     O
O       0.4464    0.785  0.34773     O
O       0.4464    0.965  0.40227     O
O       0.4467    0.366   0.7387     O
O       0.4467    0.384   0.0113     O
O       0.4467    0.866   0.2387     O
O       0.4467    0.884   0.5113     O
H       0.4493   0.2635    0.187     H
H       0.4493   0.4865    0.563     H
H       0.4493   0.7635    0.687     H
H       0.4493   0.9865    0.063     H
H       0.4495   0.0139   0.0325     H
H       0.4495   0.2361   0.2175     H
H       0.4495   0.5139   0.5325     H
H       0.4495   0.7361   0.7175     H
N       0.4507    0.105   0.2819     N
N       0.4507    0.145   0.9681     N
N       0.4507    0.605   0.7819     N
N       0.4507    0.645   0.4681     N
C       0.4511   0.3423   0.5689     C
C       0.4511   0.4077   0.1811     C
C       0.4511   0.8423   0.0689     C
C       0.4511   0.9077   0.6811     C
N       0.4519   0.0516   0.7571     N
N       0.4519   0.1984   0.4929     N
N       0.4519   0.5516   0.2571     N
N       0.4519   0.6984   0.9929     N
C       0.4522   0.0136   0.0555     C
C       0.4522   0.2364   0.1945     C
C       0.4522   0.5136   0.5555     C
C       0.4522   0.7364   0.6945     C
O       0.4569   0.3337   0.9582     O
O       0.4569   0.4163   0.7918     O
O       0.4569   0.8337   0.4582     O
O       0.4569   0.9163   0.2918     O
H       0.4603   0.3086   0.6088     H
H       0.4603   0.4414   0.1412     H
H       0.4603   0.8086   0.1088     H
H       0.4603   0.9414   0.6412     H
H       0.4655   0.3226   0.2501     H
H       0.4655   0.4274   0.4999     H
H       0.4655   0.8226   0.7501     H
H       0.4655   0.9274   0.9999     H
H       0.4678   0.0616   0.9197     H
H       0.4678   0.1884   0.3303     H
H       0.4678   0.5616   0.4197     H
H       0.4678   0.6884   0.8303     H
N       0.4681   0.3157   0.3335     N
N       0.4681   0.4343   0.4165     N
N       0.4681   0.8157   0.8335     N
N       0.4681   0.9343   0.9165     N
C       0.4688   0.2818   0.3163     C
C       0.4688   0.4682   0.4337     C
C       0.4688   0.7818   0.8163     C
C       0.4688   0.9682   0.9337     C
O       0.4691   0.2751   0.9122     O
O       0.4691   0.4749   0.8378     O
O       0.4691   0.7751   0.4122     O
O       0.4691   0.9749   0.3378     O
C       0.4692   0.2696   0.5064     C
C       0.4692   0.4804   0.2436     C
C       0.4692   0.7696   0.0064     C
C       0.4692   0.9804   0.7436     C
Mo     0.46947  0.12255  0.68664    Mo
Mo     0.46947  0.12745  0.56336    Mo
Mo     0.46947  0.62255  0.18664    Mo
Mo     0.46947  0.62745  0.06336    Mo
H       0.4695   0.1005   0.0167     H
H       0.4695   0.1495   0.2333     H
H       0.4695   0.6005   0.5167     H
H       0.4695   0.6495   0.7333     H
Mo      0.4702  0.04779  0.62761    Mo
N       0.4702   0.0857   0.3095     N
N       0.4702   0.1643   0.9405     N
Mo      0.4702  0.20221  0.62239    Mo
Mo      0.4702  0.54779  0.12761    Mo
N       0.4702   0.5857   0.8095     N
N       0.4702   0.6643   0.4405     N
Mo      0.4702  0.70221  0.12239    Mo
H       0.4776   0.0305   0.1644     H
H       0.4776   0.2195   0.0856     H
H       0.4776   0.5305   0.6644     H
H       0.4776   0.7195   0.5856     H
C       0.4777   0.3496   0.2562     C
C       0.4777   0.4004   0.4938     C
C       0.4777   0.8496   0.7562     C
C       0.4777   0.9004   0.9938     C
H       0.4795    0.055   0.1965     H
H       0.4795    0.195   0.0535     H
H       0.4795    0.555   0.6965     H
H       0.4795    0.695   0.5535     H
C         0.48   0.3743   0.5236     C
C         0.48   0.3757   0.2264     C
C         0.48   0.8743   0.0236     C
C         0.48   0.8757   0.7264     C
H       0.4817   0.0773   0.1634     H
H       0.4817   0.1727   0.0866     H
H       0.4817   0.5773   0.6634     H
H       0.4817   0.6727   0.5866     H
H       0.4931   0.0358   0.2441     H
H       0.4931   0.2142   0.0059     H
H       0.4931   0.5358   0.7441     H
H       0.4931   0.7142   0.5059     H
H       0.4976   0.2586   0.5246     H
H       0.4976   0.4914   0.2254     H
H       0.4976   0.7586   0.0246     H
H       0.4976   0.9914   0.7254     H
C       0.4994   0.0539   0.1748     C
C       0.4994   0.1961   0.0752     C
C       0.4994   0.5539   0.6748     C
C       0.4994   0.6961   0.5752     C
C       0.5006   0.3039   0.4248     C
C       0.5006   0.4461   0.3252     C
C       0.5006   0.8039   0.9248     C
C       0.5006   0.9461   0.8252     C
H       0.5024   0.0086   0.2746     H
H       0.5024   0.2414   0.9754     H
H       0.5024   0.5086   0.7746     H
H       0.5024   0.7414   0.4754     H
H       0.5069   0.2858   0.4941     H
H       0.5069   0.4642   0.2559     H
H       0.5069   0.7858   0.9941     H
H       0.5069   0.9642   0.7559     H
H       0.5183   0.3273   0.4134     H
H       0.5183   0.4227   0.3366     H
H       0.5183   0.8273   0.9134     H
H       0.5183   0.9227   0.8366     H
C         0.52   0.1243   0.2736     C
C         0.52   0.1257   0.9764     C
C         0.52   0.6243   0.7736     C
C         0.52   0.6257   0.4764     C
H       0.5205    0.305   0.4465     H
H       0.5205    0.445   0.3035     H
H       0.5205    0.805   0.9465     H
H       0.5205    0.945   0.8035     H
C       0.5223   0.0996   0.0062     C
C       0.5223   0.1504   0.2438     C
C       0.5223   0.5996   0.5062     C
C       0.5223   0.6504   0.7438     C
H       0.5224   0.2805   0.4144     H
H       0.5224   0.4695   0.3356     H
H       0.5224   0.7805   0.9144     H
H       0.5224   0.9695   0.8356     H
Mo      0.5298  0.29779  0.87761    Mo
N       0.5298   0.3357   0.5595     N
N       0.5298   0.4143   0.1905     N
Mo      0.5298  0.45221  0.87239    Mo
Mo      0.5298  0.79779  0.37761    Mo
N       0.5298   0.8357   0.0595     N
N       0.5298   0.9143   0.6905     N
Mo      0.5298  0.95221  0.37239    Mo
H       0.5305   0.3505   0.2667     H
H       0.5305   0.3995   0.4833     H
H       0.5305   0.8505   0.7667     H
H       0.5305   0.8995   0.9833     H
Mo     0.53053  0.37255  0.93664    Mo
Mo     0.53053  0.37745  0.81336    Mo
Mo     0.53053  0.87255  0.43664    Mo
Mo     0.53053  0.87745  0.31336    Mo
C       0.5308   0.0196   0.2564     C
C       0.5308   0.2304   0.9936     C
C       0.5308   0.5196   0.7564     C
C       0.5308   0.7304   0.4936     C
O       0.5309   0.0251   0.6622     O
O       0.5309   0.2249   0.5878     O
O       0.5309   0.5251   0.1622     O
O       0.5309   0.7249   0.0878     O
C       0.5312   0.0318   0.0663     C
C       0.5312   0.2182   0.1837     C
C       0.5312   0.5318   0.5663     C
C       0.5312   0.7182   0.6837     C
N       0.5319   0.0657   0.0835     N
N       0.5319   0.1843   0.1665     N
N       0.5319   0.5657   0.5835     N
N       0.5319   0.6843   0.6665     N
H       0.5322   0.3116   0.1697     H
H       0.5322   0.4384   0.5803     H
H       0.5322   0.8116   0.6697     H
H       0.5322   0.9384   0.0803     H
H       0.5345   0.0726   0.0001     H
H       0.5345   0.1774   0.2499     H
H       0.5345   0.5726   0.5001     H
H       0.5345   0.6774   0.7499     H
H       0.5397   0.0586   0.3588     H
H       0.5397   0.1914   0.8912     H
H       0.5397   0.5586   0.8588     H
H       0.5397   0.6914   0.3912     H
O       0.5431   0.0837   0.7082     O
O       0.5431   0.1663   0.5418     O
O       0.5431   0.5837   0.2082     O
O       0.5431   0.6663   0.0418     O
C       0.5478   0.2636   0.3055     C
C       0.5478   0.4864   0.4445     C
C       0.5478   0.7636   0.8055     C
C       0.5478   0.9864   0.9445     C
N       0.5481   0.3016   0.0071     N
N       0.5481   0.4484   0.7429     N
N       0.5481   0.8016   0.5071     N
N       0.5481   0.9484   0.2429     N
C       0.5489   0.0923   0.3189     C
C       0.5489   0.1577   0.9311     C
C       0.5489   0.5923   0.8189     C
C       0.5489   0.6577   0.4311     C
N       0.5493    0.355   0.5319     N
N       0.5493    0.395   0.2181     N
N       0.5493    0.855   0.0319     N
N       0.5493    0.895   0.7181     N
H       0.5505   0.2639   0.2825     H
H       0.5505   0.4861   0.4675     H
H       0.5505   0.7639   0.7825     H
H       0.5505   0.9861   0.9675     H
H       0.5507   0.0135    0.937     H
H       0.5507   0.2365    0.313     H
H       0.5507   0.5135    0.437     H
H       0.5507   0.7365    0.813     H
O       0.5533    0.116   0.4887     O
O       0.5533    0.134   0.7613     O
O       0.5533    0.616   0.9887     O
O       0.5533    0.634   0.2613     O
O       0.5536    0.035  0.59773     O
O       0.5536    0.215  0.65227     O
O       0.5536    0.535  0.09773     O
O       0.5536    0.715  0.15227     O
O       0.5561    0.091  0.55213     O
O       0.5561    0.159  0.69787     O
O       0.5561    0.591  0.05213     O
O       0.5561    0.659  0.19787     O
C       0.5629   0.2633   0.0142     C
C       0.5629   0.4867   0.7358     C
C       0.5629   0.7633   0.5142     C
C       0.5629   0.9867   0.2358     C
H       0.5644   0.1092   0.0205     H
H       0.5644   0.1408   0.2295     H
H       0.5644   0.6092   0.5205     H
H       0.5644   0.6408   0.7295     H
O       0.5672   0.3402   0.8468     O
O       0.5672   0.4098   0.9032     O
O       0.5672   0.8402   0.3468     O
O       0.5672   0.9098   0.4032     O
O        0.568   0.0993   0.4514     O
O        0.568   0.1507   0.7986     O
O        0.568   0.5993   0.9514     O
O        0.568   0.6507   0.2986     O
O       0.5696   0.0988  0.64624     O
O       0.5696   0.1512  0.60376     O
O       0.5696   0.5988  0.14624     O
O       0.5696   0.6512  0.10376     O
H       0.5761   0.0358   0.2637     H
H       0.5761   0.2142   0.9863     H
H       0.5761   0.5358   0.7637     H
H       0.5761   0.7142   0.4863     H
Co     0.57734  0.36206  0.73134    Co
Co     0.57734  0.38794  0.01866    Co
Co     0.57734  0.86206  0.23134    Co
Co     0.57734  0.88794  0.51866    Co
N       0.5807   0.3264    0.029     N
N       0.5807   0.4236    0.721     N
N       0.5807   0.8264    0.529     N
N       0.5807   0.9236    0.221     N
C       0.5817   0.0747   0.3489     C
C       0.5817   0.1753   0.9011     C
C       0.5817   0.5747   0.8489     C
C       0.5817   0.6753   0.4011     C
C       0.5837    0.117   0.2959     C
C       0.5837    0.133   0.9541     C
C       0.5837    0.617   0.7959     C
C       0.5837    0.633   0.4541     C
C        0.589     0.32   0.1697     C
C        0.589     0.43   0.5803     C
C        0.589     0.82   0.6697     C
C        0.589     0.93   0.0803     C
O       0.5895    0.335  0.90721     O
O       0.5895    0.415  0.84279     O
O       0.5895    0.835  0.40721     O
O       0.5895    0.915  0.34279     O
C       0.5913    0.052   0.1749     C
C       0.5913    0.198   0.0751     C
C       0.5913    0.552   0.6749     C
C       0.5913    0.698   0.5751     C
H       0.5915   0.3486   0.1704     H
H       0.5915   0.4014   0.5796     H
H       0.5915   0.8486   0.6704     H
H       0.5915   0.9014   0.0796     H
H       0.5934   0.2785   0.3142     H
O       0.5934   0.3724   0.7827     O
O       0.5934   0.3776   0.9673     O
H       0.5934   0.4715   0.4358     H
H       0.5934   0.7785   0.8142     H
O       0.5934   0.8724   0.2827     O
O       0.5934   0.8776   0.4673     O
H       0.5934   0.9715   0.9358     H
H       0.5981   0.0956   0.3633     H
H       0.5981   0.1544   0.8867     H
H       0.5981   0.5956   0.8633     H
H       0.5981   0.6544   0.3867     H
C       0.6075   0.2636    0.043     C
C       0.6075   0.4864    0.707     C
C       0.6075   0.7636    0.543     C
C       0.6075   0.9864    0.207     C
N       0.6097   0.0785   0.0894     N
N       0.6097   0.1715   0.1606     N
N       0.6097   0.5785   0.5894     N
N       0.6097   0.6715   0.6606     N
C        0.612   0.0215   0.0606     C
O        0.612   0.1105   0.8193     O
O        0.612   0.1395   0.4307     O
C        0.612   0.2285   0.1894     C
C        0.612   0.5215   0.5606     C
O        0.612   0.6105   0.3193     O
O        0.612   0.6395   0.9307     O
C        0.612   0.7285   0.6894     C
H       0.6156   0.3106   0.1505     H
H       0.6156   0.4394   0.5995     H
H       0.6156   0.8106   0.6505     H
H       0.6156   0.9394   0.0995     H
C       0.6174    0.303   0.0513     C
C       0.6174    0.447   0.6987     C
C       0.6174    0.803   0.5513     C
C       0.6174    0.947   0.1987     C
Mo     0.61951    0.048  0.68467    Mo
Mo     0.61951    0.202  0.56533    Mo
Mo     0.61951    0.548  0.18467    Mo
Mo     0.61951    0.702  0.06533    Mo
H       0.6212   0.0583   0.9061     H
H       0.6212   0.1917   0.3439     H
H       0.6212   0.5583   0.4061     H
H       0.6212   0.6917   0.8439     H
V      0.62471    0.375    0.875     V
V      0.62471    0.875    0.375     V
Co       0.625    0.125    0.125    Co
S        0.625    0.125   0.4611     S
V        0.625    0.125  0.52629     V
P        0.625    0.125    0.625     P
V        0.625    0.125  0.72371     V
S        0.625    0.125   0.7889     S
V        0.625    0.625  0.02629     V
P        0.625    0.625    0.125     P
V        0.625    0.625  0.22371     V
S        0.625    0.625   0.2889     S
Co       0.625    0.625    0.625    Co
S        0.625    0.625   0.9611     S
V      0.62529    0.375    0.375     V
V      0.62529    0.875    0.875     V
H       0.6288   0.0583   0.3439     H
H       0.6288   0.1917   0.9061     H
H       0.6288   0.5583   0.8439     H
H       0.6288   0.6917   0.4061     H
Mo     0.63049    0.048  0.56533    Mo
Mo     0.63049    0.202  0.68467    Mo
Mo     0.63049    0.548  0.06533    Mo
Mo     0.63049    0.702  0.18467    Mo
C       0.6326    0.303   0.1987     C
C       0.6326    0.447   0.5513     C
C       0.6326    0.803   0.6987     C
C       0.6326    0.947   0.0513     C
H       0.6344   0.3106   0.0995     H
H       0.6344   0.4394   0.6505     H
H       0.6344   0.8106   0.5995     H
H       0.6344   0.9394   0.1505     H
C        0.638   0.0215   0.1894     C
O        0.638   0.1105   0.4307     O
O        0.638   0.1395   0.8193     O
C        0.638   0.2285   0.0606     C
C        0.638   0.5215   0.6894     C
O        0.638   0.6105   0.9307     O
O        0.638   0.6395   0.3193     O
C        0.638   0.7285   0.5606     C
N       0.6403   0.0785   0.1606     N
N       0.6403   0.1715   0.0894     N
N       0.6403   0.5785   0.6606     N
N       0.6403   0.6715   0.5894     N
C       0.6425   0.2636    0.207     C
C       0.6425   0.4864    0.543     C
C       0.6425   0.7636    0.707     C
C       0.6425   0.9864    0.043     C
H       0.6519   0.0956   0.8867     H
H       0.6519   0.1544   0.3633     H
H       0.6519   0.5956   0.3867     H
H       0.6519   0.6544   0.8633     H
H       0.6566   0.2785   0.9358     H
O       0.6566   0.3724   0.4673     O
O       0.6566   0.3776   0.2827     O
H       0.6566   0.4715   0.8142     H
H       0.6566   0.7785   0.4358     H
O       0.6566   0.8724   0.9673     O
O       0.6566   0.8776   0.7827     O
H       0.6566   0.9715   0.3142     H
H       0.6585   0.3486   0.0796     H
H       0.6585   0.4014   0.6704     H
H       0.6585   0.8486   0.5796     H
H       0.6585   0.9014   0.1704     H
C       0.6587    0.052   0.0751     C
C       0.6587    0.198   0.1749     C
C       0.6587    0.552   0.5751     C
C       0.6587    0.698   0.6749     C
O       0.6605    0.335  0.34279     O
O       0.6605    0.415  0.40721     O
O       0.6605    0.835  0.84279     O
O       0.6605    0.915  0.90721     O
C        0.661     0.32   0.0803     C
C        0.661     0.43   0.6697     C
C        0.661     0.82   0.5803     C
C        0.661     0.93   0.1697     C
C       0.6663    0.117   0.9541     C
C       0.6663    0.133   0.2959     C
C       0.6663    0.617   0.4541     C
C       0.6663    0.633   0.7959     C
C       0.6683   0.0747   0.9011     C
C       0.6683   0.1753   0.3489     C
C       0.6683   0.5747   0.4011     C
C       0.6683   0.6753   0.8489     C
N       0.6693   0.3264    0.221     N
N       0.6693   0.4236    0.529     N
N       0.6693   0.8264    0.721     N
N       0.6693   0.9236    0.029     N
Co     0.67266  0.36206  0.51866    Co
Co     0.67266  0.38794  0.23134    Co
Co     0.67266  0.86206  0.01866    Co
Co     0.67266  0.88794  0.73134    Co
H       0.6739   0.0358   0.9863     H
H       0.6739   0.2142   0.2637     H
H       0.6739   0.5358   0.4863     H
H       0.6739   0.7142   0.7637     H
O       0.6804   0.0988  0.60376     O
O       0.6804   0.1512  0.64624     O
O       0.6804   0.5988  0.10376     O
O       0.6804   0.6512  0.14624     O
O        0.682   0.0993   0.7986     O
O        0.682   0.1507   0.4514     O
O        0.682   0.5993   0.2986     O
O        0.682   0.6507   0.9514     O
O       0.6828   0.3402   0.4032     O
O       0.6828   0.4098   0.3468     O
O       0.6828   0.8402   0.9032     O
O       0.6828   0.9098   0.8468     O
H       0.6856   0.1092   0.2295     H
H       0.6856   0.1408   0.0205     H
H       0.6856   0.6092   0.7295     H
H       0.6856   0.6408   0.5205     H
C       0.6871   0.2633   0.2358     C
C       0.6871   0.4867   0.5142     C
C       0.6871   0.7633   0.7358     C
C       0.6871   0.9867   0.0142     C
O       0.6939    0.091  0.69787     O
O       0.6939    0.159  0.55213     O
O       0.6939    0.591  0.19787     O
O       0.6939    0.659  0.05213     O
O       0.6964    0.035  0.65227     O
O       0.6964    0.215  0.59773     O
O       0.6964    0.535  0.15227     O
O       0.6964    0.715  0.09773     O
O       0.6967    0.116   0.7613     O
O       0.6967    0.134   0.4887     O
O       0.6967    0.616   0.2613     O
O       0.6967    0.634   0.9887     O
H       0.6993   0.0135    0.313     H
H       0.6993   0.2365    0.937     H
H       0.6993   0.5135    0.813     H
H       0.6993   0.7365    0.437     H
H       0.6995   0.2639   0.9675     H
H       0.6995   0.4861   0.7825     H
H       0.6995   0.7639   0.4675     H
H       0.6995   0.9861   0.2825     H
N       0.7007    0.355   0.7181     N
N       0.7007    0.395   0.0319     N
N       0.7007    0.855   0.2181     N
N       0.7007    0.895   0.5319     N
C       0.7011   0.0923   0.9311     C
C       0.7011   0.1577   0.3189     C
C       0.7011   0.5923   0.4311     C
C       0.7011   0.6577   0.8189     C
N       0.7019   0.3016   0.2429     N
N       0.7019   0.4484   0.5071     N
N       0.7019   0.8016   0.7429     N
N       0.7019   0.9484   0.0071     N
C       0.7022   0.2636   0.9445     C
C       0.7022   0.4864   0.8055     C
C       0.7022   0.7636   0.4445     C
C       0.7022   0.9864   0.3055     C
O       0.7069   0.0837   0.5418     O
O       0.7069   0.1663   0.7082     O
O       0.7069   0.5837   0.0418     O
O       0.7069   0.6663   0.2082     O
H       0.7103   0.0586   0.8912     H
H       0.7103   0.1914   0.3588     H
H       0.7103   0.5586   0.3912     H
H       0.7103   0.6914   0.8588     H
H       0.7155   0.0726   0.2499     H
H       0.7155   0.1774   0.0001     H
H       0.7155   0.5726   0.7499     H
H       0.7155   0.6774   0.5001     H
H       0.7178   0.3116   0.0803     H
H       0.7178   0.4384   0.6697     H
H       0.7178   0.8116   0.5803     H
H       0.7178   0.9384   0.1697     H
N       0.7181   0.0657   0.1665     N
N       0.7181   0.1843   0.0835     N
N       0.7181   0.5657   0.6665     N
N       0.7181   0.6843   0.5835     N
C       0.7188   0.0318   0.1837     C
C       0.7188   0.2182   0.0663     C
C       0.7188   0.5318   0.6837     C
C       0.7188   0.7182   0.5663     C
O       0.7191   0.0251   0.5878     O
O       0.7191   0.2249   0.6622     O
O       0.7191   0.5251   0.0878     O
O       0.7191   0.7249   0.1622     O
C       0.7192   0.0196   0.9936     C
C       0.7192   0.2304   0.2564     C
C       0.7192   0.5196   0.4936     C
C       0.7192   0.7304   0.7564     C
Mo     0.71947  0.37255  0.31336    Mo
Mo     0.71947  0.37745  0.43664    Mo
Mo     0.71947  0.87255  0.81336    Mo
Mo     0.71947  0.87745  0.93664    Mo
H       0.7195   0.3505   0.9833     H
H       0.7195   0.3995   0.7667     H
H       0.7195   0.8505   0.4833     H
H       0.7195   0.8995   0.2667     H
Mo      0.7202  0.29779  0.37239    Mo
N       0.7202   0.3357   0.6905     N
N       0.7202   0.4143   0.0595     N
Mo      0.7202  0.45221  0.37761    Mo
Mo      0.7202  0.79779  0.87239    Mo
N       0.7202   0.8357   0.1905     N
N       0.7202   0.9143   0.5595     N
Mo      0.7202  0.95221  0.87761    Mo
H       0.7276   0.2805   0.8356     H
H       0.7276   0.4695   0.9144     H
H       0.7276   0.7805   0.3356     H
H       0.7276   0.9695   0.4144     H
C       0.7277   0.0996   0.2438     C
C       0.7277   0.1504   0.0062     C
C       0.7277   0.5996   0.7438     C
C       0.7277   0.6504   0.5062     C
H       0.7295    0.305   0.8035     H
H       0.7295    0.445   0.9465     H
H       0.7295    0.805   0.3035     H
H       0.7295    0.945   0.4465     H
C         0.73   0.1243   0.9764     C
C         0.73   0.1257   0.2736     C
C         0.73   0.6243   0.4764     C
C         0.73   0.6257   0.7736     C
H       0.7317   0.3273   0.8366     H
H       0.7317   0.4227   0.9134     H
H       0.7317   0.8273   0.3366     H
H       0.7317   0.9227   0.4134     H
H       0.7431   0.2858   0.7559     H
H       0.7431   0.4642   0.9941     H
H       0.7431   0.7858   0.2559     H
H       0.7431   0.9642   0.4941     H
H       0.7476   0.0086   0.9754     H
H       0.7476   0.2414   0.2746     H
H       0.7476   0.5086   0.4754     H
H       0.7476   0.7414   0.7746     H
C       0.7494   0.3039   0.8252     C
C       0.7494   0.4461   0.9248     C
C       0.7494   0.8039   0.3252     C
C       0.7494   0.9461   0.4248     C
C       0.7506   0.0539   0.0752     C
C       0.7506   0.1961   0.1748     C
C       0.7506   0.5539   0.5752     C
C       0.7506   0.6961   0.6748     C
H       0.7524   0.2586   0.7254     H
H       0.7524   0.4914   0.0246     H
H       0.7524   0.7586   0.2254     H
H       0.7524   0.9914   0.5246     H
H       0.7569   0.0358   0.0059     H
H       0.7569   0.2142   0.2441     H
H       0.7569   0.5358   0.5059     H
H       0.7569   0.7142   0.7441     H
H       0.7683   0.0773   0.0866     H
H       0.7683   0.1727   0.1634     H
H       0.7683   0.5773   0.5866     H
H       0.7683   0.6727   0.6634     H
C         0.77   0.3743   0.7264     C
C         0.77   0.3757   0.0236     C
C         0.77   0.8743   0.2264     C
C         0.77   0.8757   0.5236     C
H       0.7705    0.055   0.0535     H
H       0.7705    0.195   0.1965     H
H       0.7705    0.555   0.5535     H
H       0.7705    0.695   0.6965     H
C       0.7723   0.3496   0.9938     C
C       0.7723   0.4004   0.7562     C
C       0.7723   0.8496   0.4938     C
C       0.7723   0.9004   0.2562     C
H       0.7724   0.0305   0.0856     H
H       0.7724   0.2195   0.1644     H
H       0.7724   0.5305   0.5856     H
H       0.7724   0.7195   0.6644     H
Mo      0.7798  0.04779  0.62239    Mo
N       0.7798   0.0857   0.9405     N
N       0.7798   0.1643   0.3095     N
Mo      0.7798  0.20221  0.62761    Mo
Mo      0.7798  0.54779  0.12239    Mo
N       0.7798   0.5857   0.4405     N
N       0.7798   0.6643   0.8095     N
Mo      0.7798  0.70221  0.12761    Mo
H       0.7805   0.1005   0.2333     H
H       0.7805   0.1495   0.0167     H
H       0.7805   0.6005   0.7333     H
H       0.7805   0.6495   0.5167     H
Mo     0.78053  0.12255  0.56336    Mo
Mo     0.78053  0.12745  0.68664    Mo
Mo     0.78053  0.62255  0.06336    Mo
Mo     0.78053  0.62745  0.18664    Mo
C       0.7808   0.2696   0.7436     C
C       0.7808   0.4804   0.0064     C
C       0.7808   0.7696   0.2436     C
C       0.7808   0.9804   0.5064     C
O       0.7809   0.2751   0.3378     O
O       0.7809   0.4749   0.4122     O
O       0.7809   0.7751   0.8378     O
O       0.7809   0.9749   0.9122     O
C       0.7812   0.2818   0.9337     C
C       0.7812   0.4682   0.8163     C
C       0.7812   0.7818   0.4337     C
C       0.7812   0.9682   0.3163     C
N       0.7819   0.3157   0.9165     N
N       0.7819   0.4343   0.8335     N
N       0.7819   0.8157   0.4165     N
N       0.7819   0.9343   0.3335     N
H       0.7822   0.0616   0.3303     H
H       0.7822   0.1884   0.9197     H
H       0.7822   0.5616   0.8303     H
H       0.7822   0.6884   0.4197     H
H       0.7845   0.3226   0.9999     H
H       0.7845   0.4274   0.7501     H
H       0.7845   0.8226   0.4999     H
H       0.7845   0.9274   0.2501     H
H       0.7897   0.3086   0.6412     H
H       0.7897   0.4414   0.1088     H
H       0.7897   0.8086   0.1412     H
H       0.7897   0.9414   0.6088     H
O       0.7931   0.3337   0.2918     O
O       0.7931   0.4163   0.4582     O
O       0.7931   0.8337   0.7918     O
O       0.7931   0.9163   0.9582     O
C       0.7978   0.0136   0.1945     C
C       0.7978   0.2364   0.0555     C
C       0.7978   0.5136   0.6945     C
C       0.7978   0.7364   0.5555     C
N       0.7981   0.0516   0.4929     N
N       0.7981   0.1984   0.7571     N
N       0.7981   0.5516   0.9929     N
N       0.7981   0.6984   0.2571     N
C       0.7989   0.3423   0.6811     C
C       0.7989   0.4077   0.0689     C
C       0.7989   0.8423   0.1811     C
C       0.7989   0.9077   0.5689     C
N       0.7993    0.105   0.9681     N
N       0.7993    0.145   0.2819     N
N       0.7993    0.605   0.4681     N
N       0.7993    0.645   0.7819     N
H       0.8005   0.0139   0.2175     H
H       0.8005   0.2361   0.0325     H
H       0.8005   0.5139   0.7175     H
H       0.8005   0.7361   0.5325     H
H       0.8007   0.2635    0.063     H
H       0.8007   0.4865    0.687     H
H       0.8007   0.7635    0.563     H
H       0.8007   0.9865    0.187     H
O       0.8033    0.366   0.5113     O
O       0.8033    0.384   0.2387     O
O       0.8033    0.866   0.0113     O
O       0.8033    0.884   0.7387     O
O       0.8036    0.285  0.40227     O
O       0.8036    0.465  0.34773     O
O       0.8036    0.785  0.90227     O
O       0.8036    0.965  0.84773     O
O       0.8061    0.341  0.44787     O
O       0.8061    0.409  0.30213     O
O       0.8061    0.841  0.94787     O
O       0.8061    0.909  0.80213     O
C       0.8129   0.0133   0.4858     C
C       0.8129   0.2367   0.7642     C
C       0.8129   0.5133   0.9858     C
C       0.8129   0.7367   0.2642     C
H       0.8144   0.3592   0.9795     H
H       0.8144   0.3908   0.7705     H
H       0.8144   0.8592   0.4795     H
H       0.8144   0.8908   0.2705     H
O       0.8172   0.0902   0.6532     O
O       0.8172   0.1598   0.5968     O
O       0.8172   0.5902   0.1532     O
O       0.8172   0.6598   0.0968     O
O        0.818   0.3493   0.5486     O
O        0.818   0.4007   0.2014     O
O        0.818   0.8493   0.0486     O
O        0.818   0.9007   0.7014     O
O       0.8196   0.3488  0.35376     O
O       0.8196   0.4012  0.39624     O
O       0.8196   0.8488  0.85376     O
O       0.8196   0.9012  0.89624     O
H       0.8261   0.2858   0.7363     H
H       0.8261   0.4642   0.0137     H
H       0.8261   0.7858   0.2363     H
H       0.8261   0.9642   0.5137     H
Co     0.82734  0.11206  0.76866    Co
Co     0.82734  0.13794  0.48134    Co
Co     0.82734  0.61206  0.26866    Co
Co     0.82734  0.63794  0.98134    Co
N       0.8307   0.0764    0.471     N
N       0.8307   0.1736    0.779     N
N       0.8307   0.5764    0.971     N
N       0.8307   0.6736    0.279     N
C       0.8317   0.3247   0.6511     C
C       0.8317   0.4253   0.0989     C
C       0.8317   0.8247   0.1511     C
C       0.8317   0.9253   0.5989     C
C       0.8337    0.367   0.7041     C
C       0.8337    0.383   0.0459     C
C       0.8337    0.867   0.2041     C
C       0.8337    0.883   0.5459     C
C        0.839     0.07   0.3303     C
C        0.839     0.18   0.9197     C
C        0.839     0.57   0.8303     C
C        0.839     0.68   0.4197     C
O       0.8395    0.085  0.59279     O
O       0.8395    0.165  0.65721     O
O       0.8395    0.585  0.09279     O
O       0.8395    0.665  0.15721     O
C       0.8413    0.302   0.8251     C
C       0.8413    0.448   0.9249     C
C       0.8413    0.802   0.3251     C
C       0.8413    0.948   0.4249     C
H       0.8415   0.0986   0.3296     H
H       0.8415   0.1514   0.9204     H
H       0.8415   0.5986   0.8296     H
H       0.8415   0.6514   0.4204     H
H       0.8434   0.0285   0.1858     H
O       0.8434   0.1224   0.7173     O
O       0.8434   0.1276   0.5327     O
H       0.8434   0.2215   0.0642     H
H       0.8434   0.5285   0.6858     H
O       0.8434   0.6224   0.2173     O
O       0.8434   0.6276   0.0327     O
H       0.8434   0.7215   0.5642     H
H       0.8481   0.3456   0.6367     H
H       0.8481   0.4044   0.1133     H
H       0.8481   0.8456   0.1367     H
H       0.8481   0.9044   0.6133     H
C       0.8575   0.0136    0.457     C
C       0.8575   0.2364    0.793     C
C       0.8575   0.5136    0.957     C
C       0.8575   0.7364    0.293     C
N       0.8597   0.3285   0.9106     N
N       0.8597   0.4215   0.8394     N
N       0.8597   0.8285   0.4106     N
N       0.8597   0.9215   0.3394     N
C        0.862   0.2715   0.9394     C
O        0.862   0.3605   0.1807     O
O        0.862   0.3895   0.5693     O
C        0.862   0.4785   0.8106     C
C        0.862   0.7715   0.4394     C
O        0.862   0.8605   0.6807     O
O        0.862   0.8895   0.0693     O
C        0.862   0.9785   0.3106     C
H       0.8656   0.0606   0.3495     H
H       0.8656   0.1894   0.9005     H
H       0.8656   0.5606   0.8495     H
H       0.8656   0.6894   0.4005     H
C       0.8674    0.053   0.4487     C
C       0.8674    0.197   0.8013     C
C       0.8674    0.553   0.9487     C
C       0.8674    0.697   0.3013     C
Mo     0.86951    0.298  0.31533    Mo
Mo     0.86951    0.452  0.43467    Mo
Mo     0.86951    0.798  0.81533    Mo
Mo     0.86951    0.952  0.93467    Mo
H       0.8712   0.3083   0.0939     H
H       0.8712   0.4417   0.6561     H
H       0.8712   0.8083   0.5939     H
H       0.8712   0.9417   0.1561     H
V      0.87471    0.125    0.625     V
V      0.87471    0.625    0.125     V
S        0.875    0.375   0.2111     S
V        0.875    0.375  0.27629     V
P        0.875    0.375    0.375     P
V        0.875    0.375  0.47371     V
S        0.875    0.375   0.5389     S
Co       0.875    0.375    0.875    Co
S        0.875    0.875   0.0389     S
Co       0.875    0.875    0.375    Co
S        0.875    0.875   0.7111     S
V        0.875    0.875  0.77629     V
P        0.875    0.875    0.875     P
V        0.875    0.875  0.97371     V
V      0.87529    0.125    0.125     V
V      0.87529    0.625    0.625     V
H       0.8788   0.3083   0.6561     H
H       0.8788   0.4417   0.0939     H
H       0.8788   0.8083   0.1561     H
H       0.8788   0.9417   0.5939     H
Mo     0.88049    0.298  0.43467    Mo
Mo     0.88049    0.452  0.31533    Mo
Mo     0.88049    0.798  0.93467    Mo
Mo     0.88049    0.952  0.81533    Mo
C       0.8826    0.053   0.3013     C
C       0.8826    0.197   0.9487     C
C       0.8826    0.553   0.8013     C
C       0.8826    0.697   0.4487     C
H       0.8844   0.0606   0.4005     H
H       0.8844   0.1894   0.8495     H
H       0.8844   0.5606   0.9005     H
H       0.8844   0.6894   0.3495     H
C        0.888   0.2715   0.8106     C
O        0.888   0.3605   0.5693     O
O        0.888   0.3895   0.1807     O
C        0.888   0.4785   0.9394     C
C        0.888   0.7715   0.3106     C
O        0.888   0.8605   0.0693     O
O        0.888   0.8895   0.6807     O
C        0.888   0.9785   0.4394     C
N       0.8903   0.3285   0.8394     N
N       0.8903   0.4215   0.9106     N
N       0.8903   0.8285   0.3394     N
N       0.8903   0.9215   0.4106     N
C       0.8925   0.0136    0.293     C
C       0.8925   0.2364    0.957     C
C       0.8925   0.5136    0.793     C
C       0.8925   0.7364    0.457     C
H       0.9019   0.3456   0.1133     H
H       0.9019   0.4044   0.6367     H
H       0.9019   0.8456   0.6133     H
H       0.9019   0.9044   0.1367     H
H       0.9066   0.0285   0.5642     H
O       0.9066   0.1224   0.0327     O
O       0.9066   0.1276   0.2173     O
H       0.9066   0.2215   0.6858     H
H       0.9066   0.5285   0.0642     H
O       0.9066   0.6224   0.5327     O
O       0.9066   0.6276   0.7173     O
H       0.9066   0.7215   0.1858     H
H       0.9085   0.0986   0.4204     H
H       0.9085   0.1514   0.8296     H
H       0.9085   0.5986   0.9204     H
H       0.9085   0.6514   0.3296     H
C       0.9087    0.302   0.9249     C
C       0.9087    0.448   0.8251     C
C       0.9087    0.802   0.4249     C
C       0.9087    0.948   0.3251     C
O       0.9105    0.085  0.15721     O
O       0.9105    0.165  0.09279     O
O       0.9105    0.585  0.65721     O
O       0.9105    0.665  0.59279     O
C        0.911     0.07   0.4197     C
C        0.911     0.18   0.8303     C
C        0.911     0.57   0.9197     C
C        0.911     0.68   0.3303     C
C       0.9163    0.367   0.0459     C
C       0.9163    0.383   0.7041     C
C       0.9163    0.867   0.5459     C
C       0.9163    0.883   0.2041     C
C       0.9183   0.3247   0.0989     C
C       0.9183   0.4253   0.6511     C
C       0.9183   0.8247   0.5989     C
C       0.9183   0.9253   0.1511     C
N       0.9193   0.0764    0.279     N
N       0.9193   0.1736    0.971     N
N       0.9193   0.5764    0.779     N
N       0.9193   0.6736    0.471     N
Co     0.92266  0.11206  0.98134    Co
Co     0.92266  0.13794  0.26866    Co
Co     0.92266  0.61206  0.48134    Co
Co     0.92266  0.63794  0.76866    Co
H       0.9239   0.2858   0.0137     H
H       0.9239   0.4642   0.7363     H
H       0.9239   0.7858   0.5137     H
H       0.9239   0.9642   0.2363     H
O       0.9304   0.3488  0.39624     O
O       0.9304   0.4012  0.35376     O
O       0.9304   0.8488  0.89624     O
O       0.9304   0.9012  0.85376     O
O        0.932   0.3493   0.2014     O
O        0.932   0.4007   0.5486     O
O        0.932   0.8493   0.7014     O
O        0.932   0.9007   0.0486     O
O       0.9328   0.0902   0.0968     O
O       0.9328   0.1598   0.1532     O
O       0.9328   0.5902   0.5968     O
O       0.9328   0.6598   0.6532     O
H       0.9356   0.3592   0.7705     H
H       0.9356   0.3908   0.9795     H
H       0.9356   0.8592   0.2705     H
H       0.9356   0.8908   0.4795     H
C       0.9371   0.0133   0.2642     C
C       0.9371   0.2367   0.9858     C
C       0.9371   0.5133   0.7642     C
C       0.9371   0.7367   0.4858     C
O       0.9439    0.341  0.30213     O
O       0.9439    0.409  0.44787     O
O       0.9439    0.841  0.80213     O
O       0.9439    0.909  0.94787     O
O       0.9464    0.285  0.34773     O
O       0.9464    0.465  0.40227     O
O       0.9464    0.785  0.84773     O
O       0.9464    0.965  0.90227     O
O       0.9467    0.366   0.2387     O
O       0.9467    0.384   0.5113     O
O       0.9467    0.866   0.7387     O
O       0.9467    0.884   0.0113     O
H       0.9493   0.2635    0.687     H
H       0.9493   0.4865    0.063     H
H       0.9493   0.7635    0.187     H
H       0.9493   0.9865    0.563     H
H       0.9495   0.0139   0.5325     H
H       0.9495   0.2361   0.7175     H
H       0.9495   0.5139   0.0325     H
H       0.9495   0.7361   0.2175     H
N       0.9507    0.105   0.7819     N
N       0.9507    0.145   0.4681     N
N       0.9507    0.605   0.2819     N
N       0.9507    0.645   0.9681     N
C       0.9511   0.3423   0.0689     C
C       0.9511   0.4077   0.6811     C
C       0.9511   0.8423   0.5689     C
C       0.9511   0.9077   0.1811     C
N       0.9519   0.0516   0.2571     N
N       0.9519   0.1984   0.9929     N
N       0.9519   0.5516   0.7571     N
N       0.9519   0.6984   0.4929     N
C       0.9522   0.0136   0.5555     C
C       0.9522   0.2364   0.6945     C
C       0.9522   0.5136   0.0555     C
C       0.9522   0.7364   0.1945     C
O       0.9569   0.3337   0.4582     O
O       0.9569   0.4163   0.2918     O
O       0.9569   0.8337   0.9582     O
O       0.9569   0.9163   0.7918     O
H       0.9603   0.3086   0.1088     H
H       0.9603   0.4414   0.6412     H
H       0.9603   0.8086   0.6088     H
H       0.9603   0.9414   0.1412     H
H       0.9655   0.3226   0.7501     H
H       0.9655   0.4274   0.9999     H
H       0.9655   0.8226   0.2501     H
H       0.9655   0.9274   0.4999     H
H       0.9678   0.0616   0.4197     H
H       0.9678   0.1884   0.8303     H
H       0.9678   0.5616   0.9197     H
H       0.9678   0.6884   0.3303     H
N       0.9681   0.3157   0.8335     N
N       0.9681   0.4343   0.9165     N
N       0.9681   0.8157   0.3335     N
N       0.9681   0.9343   0.4165     N
C       0.9688   0.2818   0.8163     C
C       0.9688   0.4682   0.9337     C
C       0.9688   0.7818   0.3163     C
C       0.9688   0.9682   0.4337     C
O       0.9691   0.2751   0.4122     O
O       0.9691   0.4749   0.3378     O
O       0.9691   0.7751   0.9122     O
O       0.9691   0.9749   0.8378     O
C       0.9692   0.2696   0.0064     C
C       0.9692   0.4804   0.7436     C
C       0.9692   0.7696   0.5064     C
C       0.9692   0.9804   0.2436     C
Mo     0.96947  0.12255  0.18664    Mo
Mo     0.96947  0.12745  0.06336    Mo
Mo     0.96947  0.62255  0.68664    Mo
Mo     0.96947  0.62745  0.56336    Mo
H       0.9695   0.1005   0.5167     H
H       0.9695   0.1495   0.7333     H
H       0.9695   0.6005   0.0167     H
H       0.9695   0.6495   0.2333     H
Mo      0.9702  0.04779  0.12761    Mo
N       0.9702   0.0857   0.8095     N
N       0.9702   0.1643   0.4405     N
Mo      0.9702  0.20221  0.12239    Mo
Mo      0.9702  0.54779  0.62761    Mo
N       0.9702   0.5857   0.3095     N
N       0.9702   0.6643   0.9405     N
Mo      0.9702  0.70221  0.62239    Mo
H       0.9776   0.0305   0.6644     H
H       0.9776   0.2195   0.5856     H
H       0.9776   0.5305   0.1644     H
H       0.9776   0.7195   0.0856     H
C       0.9777   0.3496   0.7562     C
C       0.9777   0.4004   0.9938     C
C       0.9777   0.8496   0.2562     C
C       0.9777   0.9004   0.4938     C
H       0.9795    0.055   0.6965     H
H       0.9795    0.195   0.5535     H
H       0.9795    0.555   0.1965     H
H       0.9795    0.695   0.0535     H
C         0.98   0.3743   0.0236     C
C         0.98   0.3757   0.7264     C
C         0.98   0.8743   0.5236     C
C         0.98   0.8757   0.2264     C
H       0.9817   0.0773   0.6634     H
H       0.9817   0.1727   0.5866     H
H       0.9817   0.5773   0.1634     H
H       0.9817   0.6727   0.0866     H
H       0.9931   0.0358   0.7441     H
H       0.9931   0.2142   0.5059     H
H       0.9931   0.5358   0.2441     H
H       0.9931   0.7142   0.0059     H
H       0.9976   0.2586   0.0246     H
H       0.9976   0.4914   0.7254     H
H       0.9976   0.7586   0.5246     H
H       0.9976   0.9914   0.2254     H
C       0.9994   0.0539   0.6748     C
C       0.9994   0.1961   0.5752     C
C       0.9994   0.5539   0.1748     C
C       0.9994   0.6961   0.0752     C
