data_I
_chemical_name_common  '/home/zhangsd/repos/MofS-CGCNN/ML/data/WS24/clean_cifs/VOPCEK'
_cell_length_a 27.54100
_cell_length_b 11.12600
_cell_length_c 16.99100
_cell_angle_alpha 90.00000
_cell_angle_beta  99.01000
_cell_angle_gamma 90.00000
_space_group_name_H-M_alt      'P 1'


loop_
_space_group_symop_operation_xyz
  'x, y, z' 

loop_
_atom_site_label
_atom_site_fract_x
_atom_site_fract_y
_atom_site_fract_z
_atom_site_type_symbol
H       0.0119   0.6011   0.3912     H
H       0.0119   0.8989   0.8912     H
C       0.0168     0.51   0.8335     C
C       0.0168     0.99   0.3335     C
C       0.0254     0.52   0.4981     C
C       0.0254     0.98   0.9981     C
N       0.0332    0.027   0.2661     N
N       0.0332    0.473   0.7661     N
C       0.0348    0.519   0.1613     C
C       0.0348    0.981   0.6613     C
H       0.0351   0.5835   0.9412     H
H       0.0351   0.9165   0.4412     H
C       0.0366    0.582   0.4331     C
C       0.0366    0.918   0.9331     C
C       0.0473   0.5606   0.8953     C
C       0.0473   0.9394   0.3953     C
H       0.0492   0.6239    0.258     H
H       0.0492   0.8761    0.758     H
N       0.0534   0.0265   0.5998     N
N       0.0534   0.4735   0.0998     N
N       0.0601    0.007   0.0609     N
N       0.0601    0.493   0.5609     N
C       0.0624    0.595   0.2145     C
C       0.0624    0.905   0.7145     C
C       0.0803    0.004   0.2615     C
C       0.0803    0.496   0.7615     C
C       0.0841    0.616   0.4301     C
C       0.0841    0.884   0.9301     C
H       0.0915   0.0251   0.2144     H
H       0.0915   0.4749   0.7144     H
H       0.0922    0.653   0.3847     H
H       0.0922    0.847   0.8847     H
C       0.0949   0.5773     0.89     C
C       0.0949   0.9227     0.39     C
C       0.0988   0.5067   0.0912     C
C       0.0988   0.9933   0.5912     C
C       0.1061    0.527   0.5582     C
C       0.1061    0.973   0.0582     C
C       0.1086    0.628   0.2046     C
C       0.1086    0.872   0.7046     C
H       0.1119   0.0265   0.5489     H
H       0.1119   0.4735   0.0489     H
C       0.1136   0.5467   0.8204     C
C       0.1136   0.9533   0.3204     C
H       0.1158   0.6097   0.9331     H
H       0.1158   0.8903   0.4331     H
C       0.1202    0.595   0.4963     C
C       0.1202    0.905   0.9963     C
H       0.1269   0.6796   0.2412     H
H       0.1269   0.8204   0.7412     H
C       0.1281    0.586   0.1398     C
C       0.1281    0.914   0.6398     C
H       0.1303   0.5046   0.6001     H
H       0.1303   0.9954   0.1001     H
C       0.1657   0.5655    0.812     C
C       0.1657   0.9345    0.312     C
C       0.1706    0.636   0.4967     C
C       0.1706    0.864   0.9967     C
O       0.1767   0.5799   0.7454     O
O       0.1767   0.9201   0.2454     O
C       0.1769    0.625   0.1251     C
C       0.1769    0.875   0.6251     C
O       0.1806   0.6883   0.4345     O
O       0.1806   0.8117   0.9345     O
O        0.188   0.6041    0.056     O
O        0.188   0.8959    0.556     O
O       0.1968   0.5628   0.8759     O
O       0.1968   0.9372   0.3759     O
O       0.2012   0.6328    0.559     O
O       0.2012   0.8672    0.059     O
O       0.2046   0.6793   0.1814     O
O       0.2046   0.8207   0.6814     O
H       0.2219   0.6742   0.3228     H
H       0.2219   0.8258   0.8228     H
O       0.2509   0.7249   0.3327     O
O       0.2509   0.7751   0.8327     O
Ce     0.25119  0.67389  0.97335    Ce
Ce     0.25119  0.82611  0.47335    Ce
Ce     0.25216   0.6321   0.6904    Ce
Ce     0.25216   0.8679   0.1904    Ce
H       0.2791   0.6719   0.3377     H
H       0.2791   0.8281   0.8377     H
O       0.2982   0.6747   0.1087     O
O       0.2982   0.8253   0.6087     O
O       0.3009   0.6424   0.4917     O
O       0.3009   0.8576   0.9917     O
O       0.3071   0.5493   0.8013     O
O       0.3071   0.9507   0.3013     O
O       0.3179   0.5611   0.6138     O
O       0.3179   0.9389   0.1138     O
O       0.3184   0.7139   0.2369     O
O       0.3184   0.7861   0.7369     O
C       0.3259   0.6644   0.1735     C
C       0.3259   0.8356   0.6735     C
O       0.3271    0.626   0.9216     O
O       0.3271    0.874   0.4216     O
C        0.329   0.5879   0.5481     C
C        0.329   0.9121   0.0481     C
C       0.3381   0.5872   0.8583     C
C       0.3381   0.9128   0.3583     C
H       0.3605   0.5335   0.0618     H
H       0.3605   0.9665   0.5618     H
C       0.3721   0.5924   0.1752     C
C       0.3721   0.9076   0.6752     C
H         0.38   0.6649    0.439     H
H         0.38   0.8351    0.939     H
C       0.3803    0.558   0.5334     C
C       0.3803    0.942   0.0334     C
H       0.3832    0.556   0.7336     H
H       0.3832    0.944   0.2336     H
C       0.3839   0.5355   0.1076     C
C       0.3839   0.9645   0.6076     C
C       0.3914   0.5781   0.8523     C
C       0.3914   0.9219   0.3523     C
H       0.3974   0.0673   0.1178     H
H       0.3974   0.4327   0.6178     H
C       0.3996    0.612   0.4725     C
C       0.3996    0.888   0.9725     C
H       0.3999   0.6195   0.2921     H
H       0.3999   0.8805   0.7921     H
C       0.4066    0.585   0.2451     C
C       0.4066    0.915   0.7451     C
C       0.4069   0.5588   0.7791     C
C       0.4069   0.9412   0.2791     C
C         0.41   0.0263   0.0777     C
C         0.41   0.4737   0.5777     C
H       0.4202   0.6198   0.9649     H
H       0.4202   0.8802   0.4649     H
N       0.4274   0.0162    0.606     N
N       0.4274   0.4838    0.106     N
C       0.4282   0.5967    0.916     C
C       0.4282   0.9033    0.416     C
C       0.4462   0.5911   0.4594     C
C       0.4462   0.9089   0.9594     C
C       0.4505   0.5264   0.2439     C
C       0.4505   0.9736   0.7439     C
N       0.4541   0.5442   0.7706     N
N       0.4541   0.9558   0.2706     N
N       0.4562    0.052   0.0655     N
N       0.4562    0.448   0.5655     N
H       0.4586   0.6317    0.419     H
H       0.4586   0.8683    0.919     H
C       0.4611   0.0141   0.6727     C
C       0.4611   0.4859   0.1727     C
H       0.4725   0.5147   0.2907     H
H       0.4725   0.9853   0.7907     H
C       0.4743   0.5108   0.5055     C
C       0.4743   0.9892   0.0055     C
C       0.4765   0.5816   0.9079     C
C       0.4765   0.9184   0.4079     C
C       0.4884   0.5505   0.8353     C
C       0.4884   0.9495   0.3353     C
H       0.4989   0.0924   0.5485     H
H       0.4989   0.4076   0.0485     H
H       0.5011   0.5924   0.9515     H
H       0.5011   0.9076   0.4515     H
C       0.5116   0.0505   0.6647     C
C       0.5116   0.4495   0.1647     C
C       0.5235   0.0816   0.5921     C
C       0.5235   0.4184   0.0921     C
C       0.5257   0.0108   0.9945     C
C       0.5257   0.4892   0.4945     C
H       0.5275   0.0147   0.2093     H
H       0.5275   0.4853   0.7093     H
C       0.5389   0.5141   0.8273     C
C       0.5389   0.9859   0.3273     C
H       0.5414   0.1317    0.081     H
H       0.5414   0.3683    0.581     H
N       0.5438    0.552   0.4345     N
N       0.5438    0.948   0.9345     N
N       0.5459   0.0442   0.7294     N
N       0.5459   0.4558   0.2294     N
C       0.5495   0.0264   0.2561     C
C       0.5495   0.4736   0.7561     C
C       0.5538   0.0911   0.0406     C
C       0.5538   0.4089   0.5406     C
C       0.5718   0.0967    0.584     C
C       0.5718   0.4033    0.084     C
N       0.5726   0.5162    0.894     N
N       0.5726   0.9838    0.394     N
H       0.5798   0.1198   0.5351     H
H       0.5798   0.3802   0.0351     H
C         0.59   0.5263   0.4223     C
C         0.59   0.9737   0.9223     C
C       0.5931   0.0588   0.7209     C
C       0.5931   0.4412   0.2209     C
C       0.5934    0.085   0.2549     C
C       0.5934    0.415   0.7549     C
H       0.6001   0.1195   0.2079     H
H       0.6001   0.3805   0.7079     H
C       0.6004    0.112   0.0275     C
C       0.6004    0.388   0.5275     C
H       0.6026   0.5673   0.3822     H
H       0.6026   0.9327   0.8822     H
C       0.6086   0.0781   0.6477     C
C       0.6086   0.4219   0.1477     C
C       0.6161   0.0355   0.3924     C
C       0.6161   0.4645   0.8924     C
H       0.6168    0.056   0.7664     H
H       0.6168    0.444   0.2664     H
C       0.6197    0.058   0.9666     C
C       0.6197    0.442   0.4666     C
H         0.62   0.1649    0.061     H
H         0.62   0.3351    0.561     H
C       0.6279   0.0924   0.3248     C
C       0.6279   0.4076   0.8248     C
H       0.6395   0.0335   0.4382     H
H       0.6395   0.4665   0.9382     H
C       0.6619   0.0872   0.6417     C
C       0.6619   0.4128   0.1417     C
C        0.671   0.0879   0.9519     C
C        0.671   0.4121   0.4519     C
O       0.6729    0.126   0.5784     O
O       0.6729    0.374   0.0784     O
C       0.6741   0.1644   0.3265     C
C       0.6741   0.3356   0.8265     C
O       0.6816   0.2139   0.2631     O
O       0.6816   0.2861   0.7631     O
O       0.6821   0.0611   0.8862     O
O       0.6821   0.4389   0.3862     O
O       0.6929   0.0493   0.6987     O
O       0.6929   0.4507   0.1987     O
O       0.6991   0.1424   0.0083     O
O       0.6991   0.3576   0.5083     O
O       0.7018   0.1747   0.3913     O
O       0.7018   0.3253   0.8913     O
H       0.7209   0.1719   0.1623     H
H       0.7209   0.3281   0.6623     H
Ce     0.74784   0.1321   0.8096    Ce
Ce     0.74784   0.3679   0.3096    Ce
Ce     0.74881  0.17389  0.52665    Ce
Ce     0.74881  0.32611  0.02665    Ce
O       0.7491   0.2249   0.1673     O
O       0.7491   0.2751   0.6673     O
H       0.7781   0.1742   0.1772     H
H       0.7781   0.3258   0.6772     H
O       0.7954   0.1793   0.3186     O
O       0.7954   0.3207   0.8186     O
O       0.7988   0.1328    0.941     O
O       0.7988   0.3672    0.441     O
O       0.8032   0.0628   0.6241     O
O       0.8032   0.4372   0.1241     O
O        0.812   0.1041    0.444     O
O        0.812   0.3959    0.944     O
O       0.8194   0.1883   0.0655     O
O       0.8194   0.3117   0.5655     O
C       0.8231    0.125   0.3749     C
C       0.8231    0.375   0.8749     C
O       0.8233   0.0799   0.7546     O
O       0.8233   0.4201   0.2546     O
C       0.8294    0.136   0.0033     C
C       0.8294    0.364   0.5033     C
C       0.8343   0.0655    0.688     C
C       0.8343   0.4345    0.188     C
H       0.8697   0.0046   0.8999     H
H       0.8697   0.4954   0.3999     H
C       0.8719    0.086   0.3602     C
C       0.8719    0.414   0.8602     C
H       0.8731   0.1796   0.2588     H
H       0.8731   0.3204   0.7588     H
C       0.8798    0.095   0.0037     C
C       0.8798    0.405   0.5037     C
H       0.8842   0.1097   0.5669     H
H       0.8842   0.3903   0.0669     H
C       0.8864   0.0467   0.6796     C
C       0.8864   0.4533   0.1796     C
H       0.8881   0.5265   0.9511     H
H       0.8881   0.9735   0.4511     H
C       0.8914    0.128   0.2954     C
C       0.8914    0.372   0.7954     C
C       0.8939    0.027   0.9418     C
C       0.8939    0.473   0.4418     C
C       0.9012   0.0067   0.4088     C
C       0.9012   0.4933   0.9088     C
C       0.9051   0.0773     0.61     C
C       0.9051   0.4227     0.11     C
H       0.9078    0.153   0.1153     H
H       0.9078    0.347   0.6153     H
H       0.9085   0.5251   0.2856     H
H       0.9085   0.9749   0.7856     H
C       0.9159    0.116   0.0699     C
C       0.9159    0.384   0.5699     C
C       0.9197    0.504   0.2385     C
C       0.9197    0.996   0.7385     C
C       0.9376    0.095   0.2855     C
C       0.9376    0.405   0.7855     C
N       0.9399    0.507   0.4391     N
N       0.9399    0.993   0.9391     N
N       0.9466   0.5265   0.9002     N
N       0.9466   0.9735   0.4002     N
H       0.9508   0.1239    0.242     H
H       0.9508   0.3761    0.742     H
C       0.9527   0.0606   0.6047     C
C       0.9527   0.4394   0.1047     C
C       0.9634    0.082   0.0669     C
C       0.9634    0.418   0.5669     C
H       0.9649   0.0835   0.5588     H
H       0.9649   0.4165   0.0588     H
C       0.9652    0.019   0.3387     C
C       0.9652    0.481   0.8387     C
N       0.9668    0.527   0.2339     N
N       0.9668    0.973   0.7339     N
C       0.9746     0.02   0.0019     C
C       0.9746     0.48   0.5019     C
C       0.9832     0.01   0.6665     C
C       0.9832     0.49   0.1665     C
H       0.9881   0.1011   0.1088     H
H       0.9881   0.3989   0.6088     H
