data_I
_chemical_name_common  '/home/zhangsd/repos/MofS-CGCNN/ML/data/WS24/clean_cifs/WABVUR'
_cell_length_a 14.32280
_cell_length_b 14.32280
_cell_length_c 14.32280
_cell_angle_alpha 90.00000
_cell_angle_beta  90.00000
_cell_angle_gamma 90.00000
_space_group_name_H-M_alt      'P 1'


loop_
_space_group_symop_operation_xyz
  'x, y, z' 

loop_
_atom_site_label
_atom_site_fract_x
_atom_site_fract_y
_atom_site_fract_z
_atom_site_type_symbol
Li         0.0      0.0      0.5    Li
O          0.0   0.2499   0.3596     O
O          0.0   0.2499   0.6404     O
Cu         0.0     0.25      0.5    Cu
C          0.0   0.3376   0.3376     C
C          0.0   0.3376   0.6624     C
O          0.0   0.3596   0.2499     O
O          0.0   0.3596   0.7501     O
O          0.0   0.3993   0.3993     O
O          0.0   0.3993   0.6007     O
Li         0.0      0.5      0.0    Li
Cu         0.0      0.5     0.25    Cu
Li         0.0      0.5      0.5    Li
Cu         0.0      0.5     0.75    Cu
O          0.0   0.6007   0.3993     O
O          0.0   0.6007   0.6007     O
O          0.0   0.6404   0.2499     O
O          0.0   0.6404   0.7501     O
C          0.0   0.6624   0.3376     C
C          0.0   0.6624   0.6624     C
Cu         0.0     0.75      0.5    Cu
O          0.0   0.7501   0.3596     O
O          0.0   0.7501   0.6404     O
O       0.1007   0.1007      0.5     O
O       0.1007      0.5   0.1007     O
O       0.1007      0.5   0.8993     O
O       0.1007   0.8993      0.5     O
O       0.1404   0.2501      0.5     O
O       0.1404      0.5   0.2501     O
O       0.1404      0.5   0.7499     O
O       0.1404   0.7499      0.5     O
C       0.1624   0.1624      0.5     C
C       0.1624      0.5   0.1624     C
C       0.1624      0.5   0.8376     C
C       0.1624   0.8376      0.5     C
O       0.2499      0.0   0.3596     O
O       0.2499      0.0   0.6404     O
O       0.2499   0.3596      0.0     O
O       0.2499   0.6404      0.0     O
Cu        0.25      0.0      0.5    Cu
Cu        0.25      0.5      0.0    Cu
O       0.2501   0.1404      0.5     O
O       0.2501      0.5   0.1404     O
O       0.2501      0.5   0.8596     O
O       0.2501   0.8596      0.5     O
C       0.3376      0.0   0.3376     C
C       0.3376      0.0   0.6624     C
C       0.3376   0.3376      0.0     C
C       0.3376   0.6624      0.0     C
O       0.3596      0.0   0.2499     O
O       0.3596      0.0   0.7501     O
O       0.3596   0.2499      0.0     O
O       0.3596   0.7501      0.0     O
O       0.3993      0.0   0.3993     O
O       0.3993      0.0   0.6007     O
O       0.3993   0.3993      0.0     O
O       0.3993   0.6007      0.0     O
Li         0.5      0.0      0.0    Li
Cu         0.5      0.0     0.25    Cu
Li         0.5      0.0      0.5    Li
Cu         0.5      0.0     0.75    Cu
O          0.5   0.1007   0.1007     O
O          0.5   0.1007   0.8993     O
O          0.5   0.1404   0.2501     O
O          0.5   0.1404   0.7499     O
C          0.5   0.1624   0.1624     C
C          0.5   0.1624   0.8376     C
Cu         0.5     0.25      0.0    Cu
O          0.5   0.2501   0.1404     O
O          0.5   0.2501   0.8596     O
Li         0.5      0.5      0.0    Li
O          0.5   0.7499   0.1404     O
O          0.5   0.7499   0.8596     O
Cu         0.5     0.75      0.0    Cu
C          0.5   0.8376   0.1624     C
C          0.5   0.8376   0.8376     C
O          0.5   0.8596   0.2501     O
O          0.5   0.8596   0.7499     O
O          0.5   0.8993   0.1007     O
O          0.5   0.8993   0.8993     O
O       0.6007      0.0   0.3993     O
O       0.6007      0.0   0.6007     O
O       0.6007   0.3993      0.0     O
O       0.6007   0.6007      0.0     O
O       0.6404      0.0   0.2499     O
O       0.6404      0.0   0.7501     O
O       0.6404   0.2499      0.0     O
O       0.6404   0.7501      0.0     O
C       0.6624      0.0   0.3376     C
C       0.6624      0.0   0.6624     C
C       0.6624   0.3376      0.0     C
C       0.6624   0.6624      0.0     C
O       0.7499   0.1404      0.5     O
O       0.7499      0.5   0.1404     O
O       0.7499      0.5   0.8596     O
O       0.7499   0.8596      0.5     O
Cu        0.75      0.0      0.5    Cu
Cu        0.75      0.5      0.0    Cu
O       0.7501      0.0   0.3596     O
O       0.7501      0.0   0.6404     O
O       0.7501   0.3596      0.0     O
O       0.7501   0.6404      0.0     O
C       0.8376   0.1624      0.5     C
C       0.8376      0.5   0.1624     C
C       0.8376      0.5   0.8376     C
C       0.8376   0.8376      0.5     C
O       0.8596   0.2501      0.5     O
O       0.8596      0.5   0.2501     O
O       0.8596      0.5   0.7499     O
O       0.8596   0.7499      0.5     O
O       0.8993   0.1007      0.5     O
O       0.8993      0.5   0.1007     O
O       0.8993      0.5   0.8993     O
O       0.8993   0.8993      0.5     O
