data_I
_chemical_name_common  '/home/zhangsd/repos/MofS-CGCNN/ML/data/WS24/clean_cifs/WABWEC'
_cell_length_a 14.52750
_cell_length_b 14.52750
_cell_length_c 14.52750
_cell_angle_alpha 90.00000
_cell_angle_beta  90.00000
_cell_angle_gamma 90.00000
_space_group_name_H-M_alt      'P 1'


loop_
_space_group_symop_operation_xyz
  'x, y, z' 

loop_
_atom_site_label
_atom_site_fract_x
_atom_site_fract_y
_atom_site_fract_z
_atom_site_type_symbol
O          0.0   0.2467   0.3544     O
O          0.0   0.2467   0.6456     O
Cu         0.0     0.25      0.5    Cu
C          0.0   0.3297   0.3297     C
C          0.0   0.3297   0.6703     C
O          0.0   0.3544   0.2467     O
O          0.0   0.3544   0.7533     O
O          0.0   0.3915   0.3915     O
O          0.0   0.3915   0.6085     O
Cu         0.0      0.5     0.25    Cu
Cu         0.0      0.5     0.75    Cu
O          0.0   0.6085   0.3915     O
O          0.0   0.6085   0.6085     O
O          0.0   0.6456   0.2467     O
O          0.0   0.6456   0.7533     O
C          0.0   0.6703   0.3297     C
C          0.0   0.6703   0.6703     C
Cu         0.0     0.75      0.5    Cu
O          0.0   0.7533   0.3544     O
O          0.0   0.7533   0.6456     O
O       0.1085   0.1085      0.5     O
O       0.1085      0.5   0.1085     O
O       0.1085      0.5   0.8915     O
O       0.1085   0.8915      0.5     O
O       0.1456   0.2533      0.5     O
O       0.1456      0.5   0.2533     O
O       0.1456      0.5   0.7467     O
O       0.1456   0.7467      0.5     O
C       0.1703   0.1703      0.5     C
C       0.1703      0.5   0.1703     C
C       0.1703      0.5   0.8297     C
C       0.1703   0.8297      0.5     C
O       0.2467      0.0   0.3544     O
O       0.2467      0.0   0.6456     O
O       0.2467   0.3544      0.0     O
O       0.2467   0.6456      0.0     O
Cu        0.25      0.0      0.5    Cu
Cu        0.25      0.5      0.0    Cu
O       0.2533   0.1456      0.5     O
O       0.2533      0.5   0.1456     O
O       0.2533      0.5   0.8544     O
O       0.2533   0.8544      0.5     O
C       0.3297      0.0   0.3297     C
C       0.3297      0.0   0.6703     C
C       0.3297   0.3297      0.0     C
C       0.3297   0.6703      0.0     C
O       0.3544      0.0   0.2467     O
O       0.3544      0.0   0.7533     O
O       0.3544   0.2467      0.0     O
O       0.3544   0.7533      0.0     O
O       0.3915      0.0   0.3915     O
O       0.3915      0.0   0.6085     O
O       0.3915   0.3915      0.0     O
O       0.3915   0.6085      0.0     O
Cu         0.5      0.0     0.25    Cu
Cu         0.5      0.0     0.75    Cu
O          0.5   0.1085   0.1085     O
O          0.5   0.1085   0.8915     O
O          0.5   0.1456   0.2533     O
O          0.5   0.1456   0.7467     O
C          0.5   0.1703   0.1703     C
C          0.5   0.1703   0.8297     C
Cu         0.5     0.25      0.0    Cu
O          0.5   0.2533   0.1456     O
O          0.5   0.2533   0.8544     O
O          0.5   0.7467   0.1456     O
O          0.5   0.7467   0.8544     O
Cu         0.5     0.75      0.0    Cu
C          0.5   0.8297   0.1703     C
C          0.5   0.8297   0.8297     C
O          0.5   0.8544   0.2533     O
O          0.5   0.8544   0.7467     O
O          0.5   0.8915   0.1085     O
O          0.5   0.8915   0.8915     O
O       0.6085      0.0   0.3915     O
O       0.6085      0.0   0.6085     O
O       0.6085   0.3915      0.0     O
O       0.6085   0.6085      0.0     O
O       0.6456      0.0   0.2467     O
O       0.6456      0.0   0.7533     O
O       0.6456   0.2467      0.0     O
O       0.6456   0.7533      0.0     O
C       0.6703      0.0   0.3297     C
C       0.6703      0.0   0.6703     C
C       0.6703   0.3297      0.0     C
C       0.6703   0.6703      0.0     C
O       0.7467   0.1456      0.5     O
O       0.7467      0.5   0.1456     O
O       0.7467      0.5   0.8544     O
O       0.7467   0.8544      0.5     O
Cu        0.75      0.0      0.5    Cu
Cu        0.75      0.5      0.0    Cu
O       0.7533      0.0   0.3544     O
O       0.7533      0.0   0.6456     O
O       0.7533   0.3544      0.0     O
O       0.7533   0.6456      0.0     O
C       0.8297   0.1703      0.5     C
C       0.8297      0.5   0.1703     C
C       0.8297      0.5   0.8297     C
C       0.8297   0.8297      0.5     C
O       0.8544   0.2533      0.5     O
O       0.8544      0.5   0.2533     O
O       0.8544      0.5   0.7467     O
O       0.8544   0.7467      0.5     O
O       0.8915   0.1085      0.5     O
O       0.8915      0.5   0.1085     O
O       0.8915      0.5   0.8915     O
O       0.8915   0.8915      0.5     O
