data_I
_chemical_name_common  '/home/zhangsd/repos/MofS-CGCNN/ML/data/WS24/clean_cifs/WOLRIZ'
_cell_length_a 15.50060
_cell_length_b 15.50060
_cell_length_c 18.33680
_cell_angle_alpha 115.00300
_cell_angle_beta  115.00300
_cell_angle_gamma 90.00000
_space_group_name_H-M_alt      'P 1'


loop_
_space_group_symop_operation_xyz
  'x, y, z' 

loop_
_atom_site_label
_atom_site_fract_x
_atom_site_fract_y
_atom_site_fract_z
_atom_site_type_symbol
Cl         0.0      0.0      0.0    Cl
N      0.00513   0.2244  0.09568     N
N      0.00513  0.87128  0.09568     N
N      0.01108  0.30494  0.16602     N
N      0.01108  0.86108  0.16602     N
H       0.0229   0.4658    0.303     H
H       0.0229   0.8372    0.303     H
H       0.0825   0.6208   0.4218     H
H       0.0825    0.801   0.4218     H
C      0.08663  0.49713  0.32606     C
C      0.08663  0.82893  0.32606     C
N      0.09055   0.2244  0.09568     N
N      0.09055  0.87128  0.09568     N
C      0.10392  0.35312  0.20784     C
C      0.10392  0.85472  0.20784     C
Cu     0.11582  0.11582     -0.0    Cu
Cu     0.11582  0.88418      0.0    Cu
Cu     0.11684  0.11684  0.81048    Cu
Cu     0.11684  0.69364  0.81048    Cu
C      0.12264  0.59044  0.39748     C
C      0.12264  0.80704  0.39748     C
N      0.12872  0.90945  0.90432     N
N      0.12872  0.99487  0.90432     N
N      0.13892  0.84506  0.83398     N
N      0.13892  0.98892  0.83398     N
C      0.14427  0.44977  0.28854     C
C      0.14427  0.83877  0.28854     C
C      0.14528  0.89608  0.79216     C
N      0.15494  0.30494  0.16602     N
N      0.15494  0.86108  0.16602     N
C      0.16123  0.85573  0.71146     C
H       0.1628   0.7199    0.697     H
H       0.1628   0.9771    0.697     H
C      0.17107  0.76057  0.67394     C
C      0.17107  0.91337  0.67394     C
C      0.19296  0.72516  0.60252     C
C      0.19296  0.87736  0.60252     C
H        0.199   0.6607   0.5782     H
H        0.199   0.9175   0.5782     H
C      0.20614  0.78314  0.56628     C
C      0.21686  0.63986  0.43372     C
C      0.21686  0.79386  0.43372     C
N       0.2244  0.00513  0.09568     N
N       0.2244  0.09055  0.09568     N
C      0.23943  0.49713  0.32606     C
C      0.23943  0.82893  0.32606     C
C         0.25     0.75      0.5     C
C      0.27484  0.59044  0.39748     C
C      0.27484  0.80704  0.39748     C
H       0.2801   0.4658    0.303     H
H       0.2801   0.8372    0.303     H
N      0.30494  0.01108  0.16602     N
N      0.30494  0.15494  0.16602     N
Cu     0.30636  0.30636  0.18952    Cu
Cu     0.30636  0.88316  0.18952    Cu
H       0.3393   0.6208   0.4218     H
H       0.3393    0.801   0.4218     H
C      0.35312  0.10392  0.20784     C
C      0.36014  0.78314  0.56628     C
H       0.3792   0.6607   0.5782     H
H       0.3792   0.9175   0.5782     H
C      0.40956  0.72516  0.60252     C
C      0.40956  0.87736  0.60252     C
C      0.44977  0.14427  0.28854     C
H       0.4658   0.0229    0.303     H
H       0.4658   0.2801    0.303     H
C      0.49713  0.08663  0.32606     C
C      0.49713  0.23943  0.32606     C
C      0.50287  0.76057  0.67394     C
C      0.50287  0.91337  0.67394     C
H       0.5342   0.7199    0.697     H
H       0.5342   0.9771    0.697     H
C      0.55023  0.85573  0.71146     C
C      0.59044  0.12264  0.39748     C
C      0.59044  0.27484  0.39748     C
H       0.6208   0.0825   0.4218     H
H       0.6208   0.3393   0.4218     H
C      0.63986  0.21686  0.43372     C
C      0.64688  0.89608  0.79216     C
H       0.6607    0.199   0.5782     H
H       0.6607   0.3792   0.5782     H
Cu     0.69364  0.11684  0.81048    Cu
Cu     0.69364  0.69364  0.81048    Cu
N      0.69506  0.84506  0.83398     N
N      0.69506  0.98892  0.83398     N
H       0.7199   0.1628    0.697     H
H       0.7199   0.5342    0.697     H
C      0.72516  0.19296  0.60252     C
C      0.72516  0.40956  0.60252     C
C         0.75     0.25      0.5     C
C      0.76057  0.17107  0.67394     C
C      0.76057  0.50287  0.67394     C
N       0.7756  0.90945  0.90432     N
N       0.7756  0.99487  0.90432     N
C      0.78314  0.20614  0.56628     C
C      0.78314  0.36014  0.56628     C
C      0.79386  0.21686  0.43372     C
H        0.801   0.0825   0.4218     H
H        0.801   0.3393   0.4218     H
C      0.80704  0.12264  0.39748     C
C      0.80704  0.27484  0.39748     C
C      0.82893  0.08663  0.32606     C
C      0.82893  0.23943  0.32606     C
H       0.8372   0.0229    0.303     H
H       0.8372   0.2801    0.303     H
C      0.83877  0.14427  0.28854     C
N      0.84506  0.13892  0.83398     N
N      0.84506  0.69506  0.83398     N
C      0.85472  0.10392  0.20784     C
C      0.85573  0.16123  0.71146     C
C      0.85573  0.55023  0.71146     C
N      0.86108  0.01108  0.16602     N
N      0.86108  0.15494  0.16602     N
N      0.87128  0.00513  0.09568     N
N      0.87128  0.09055  0.09568     N
C      0.87736  0.19296  0.60252     C
C      0.87736  0.40956  0.60252     C
Cu     0.88316  0.30636  0.18952    Cu
Cu     0.88316  0.88316  0.18952    Cu
Cu     0.88418  0.11582      0.0    Cu
Cu     0.88418  0.88418      1.0    Cu
C      0.89608  0.14528  0.79216     C
C      0.89608  0.64688  0.79216     C
N      0.90945  0.12872  0.90432     N
N      0.90945   0.7756  0.90432     N
C      0.91337  0.17107  0.67394     C
C      0.91337  0.50287  0.67394     C
H       0.9175    0.199   0.5782     H
H       0.9175   0.3792   0.5782     H
H       0.9771   0.1628    0.697     H
H       0.9771   0.5342    0.697     H
N      0.98892  0.13892  0.83398     N
N      0.98892  0.69506  0.83398     N
N      0.99487  0.12872  0.90432     N
N      0.99487   0.7756  0.90432     N
