data_I
_chemical_name_common  '/home/zhangsd/repos/MofS-CGCNN/ML/data/WS24/clean_cifs/WOZGUP'
_cell_length_a 20.42900
_cell_length_b 22.74400
_cell_length_c 21.79200
_cell_angle_alpha 90.00000
_cell_angle_beta  108.78300
_cell_angle_gamma 90.00000
_space_group_name_H-M_alt      'P 1'


loop_
_space_group_symop_operation_xyz
  'x, y, z' 

loop_
_atom_site_label
_atom_site_fract_x
_atom_site_fract_y
_atom_site_fract_z
_atom_site_type_symbol
H       0.0122   0.2915    0.558     H
H       0.0122   0.7085    0.058     H
H       0.0186   0.1816   0.9969     H
H       0.0186   0.8184   0.4969     H
N       0.0301   0.2222   0.4491     N
N       0.0301   0.7778   0.9491     N
N        0.031   0.2326   0.3882     N
N        0.031   0.7674   0.8882     N
C       0.0313   0.2084   0.0347     C
C       0.0313   0.7916   0.5347     C
H       0.0339   0.4747   0.7187     H
H       0.0339   0.5253   0.2187     H
C       0.0343   0.3882   0.7427     C
C       0.0343   0.6118   0.2427     C
C        0.035   0.2982   0.9662     C
C        0.035   0.7018   0.4662     C
H       0.0483   0.3684   0.9129     H
H       0.0483   0.6316   0.4129     H
H       0.0547   0.3015   0.7634     H
H       0.0547   0.6985   0.2634     H
C       0.0599   0.4394   0.7242     C
C       0.0599   0.5606   0.2242     C
H        0.064   0.1871   0.0716     H
H        0.064   0.8129   0.5716     H
C       0.0682   0.2624   0.0189     C
C       0.0682   0.7376   0.5189     C
C        0.071    0.344   0.9488     C
C        0.071    0.656   0.4488     C
C       0.0722   0.3365   0.7508     C
C       0.0722   0.6635   0.2508     C
C       0.0956   0.2269   0.4901     C
C       0.0956   0.7731   0.9901     C
C       0.0972   0.2438   0.3916     C
C       0.0972   0.7562   0.8916     C
H         0.11   0.2217   0.5358     H
H         0.11   0.7783   0.0358     H
H       0.1129   0.2526   0.3561     H
H       0.1129   0.7474   0.8561     H
C       0.1234   0.4389   0.7139     C
C       0.1234   0.5611   0.2139     C
C       0.1358    0.336   0.7404     C
C       0.1358    0.664   0.2404     C
N       0.1371   0.2403   0.4546     N
N       0.1371   0.7597   0.9546     N
C       0.1374   0.2723   0.0544     C
C       0.1374   0.7277   0.5544     C
C       0.1402   0.3539   0.9843     C
C       0.1402   0.6461   0.4843     C
H        0.141   0.4739   0.7012     H
H        0.141   0.5261   0.2012     H
H       0.1506   0.0311   0.5594     H
H       0.1506   0.9689   0.0594     H
H       0.1507    0.379   0.8685     H
H       0.1507    0.621   0.3685     H
H       0.1601   0.2479   0.0903     H
H       0.1601   0.7521   0.5903     H
C       0.1614   0.3872    0.722     C
C       0.1614   0.6128    0.222     C
H       0.1618   0.3006    0.746     H
H       0.1618   0.6994    0.246     H
H        0.163   0.3678   0.5001     H
H        0.163   0.6322   0.0001     H
C       0.1734   0.3181    0.037     C
C       0.1734   0.6819    0.537     C
C       0.1783   0.4054   0.9001     C
C       0.1783   0.5946   0.4001     C
C       0.1795   0.4014   0.9639     C
C       0.1795   0.5986   0.4639     C
N       0.1851   0.3886   0.5961     N
N       0.1851   0.6114   0.0961     N
H       0.1858   0.1201    0.499     H
H       0.1858   0.8799    0.999     H
C       0.1868   0.3581   0.5441     C
C       0.1868   0.6419   0.0441     C
H       0.1875   0.3011    0.343     H
H       0.1875   0.6989    0.843     H
H       0.1949   0.0218   0.6341     H
H       0.1949   0.9782   0.1341     H
C       0.1979    0.032   0.5909     C
C       0.1979    0.968   0.0909     C
H       0.2133   0.0089   0.4761     H
H       0.2133   0.9911   0.9761     H
C        0.214   0.1274   0.5424     C
C        0.214   0.8726   0.0424     C
C       0.2165   0.3294   0.3709     C
C       0.2165   0.6706   0.8709     C
H       0.2167   0.4507   0.8386     H
H       0.2167   0.5493   0.3386     H
C       0.2175   0.4479   0.8823     C
C       0.2175   0.5521   0.3823     C
H       0.2183   0.2149   0.3427     H
H       0.2183   0.7851   0.8427     H
C       0.2199   0.4399   0.0101     C
C       0.2199   0.5601   0.5101     C
H       0.2206   0.3248   0.0612     H
H       0.2206   0.6752   0.5612     H
H       0.2207   0.4372   0.0538     H
H       0.2207   0.5628   0.5538     H
N       0.2251   0.3607   0.6491     N
N       0.2251   0.6393   0.1491     N
N       0.2255   0.0896    0.593     N
N       0.2255   0.9104    0.093     N
N       0.2278   0.3113   0.5649     N
N       0.2278   0.6887   0.0649     N
C       0.2311   0.3846   0.7124     C
C       0.2311   0.6154   0.2124     C
N       0.2316   0.3837   0.3534     N
N       0.2316   0.6163   0.8534     N
H       0.2374   0.1404   0.2535     H
H       0.2374   0.8596   0.7535     H
C        0.241   0.0175   0.0077     C
C        0.241   0.9825   0.5077     C
C       0.2422   0.0135   0.0715     C
C       0.2422   0.9865   0.5715     C
C       0.2485   0.1871   0.3702     C
C       0.2485   0.8129   0.8702     C
H       0.2488   0.0754   0.2835     H
H       0.2488   0.9246   0.7835     H
N       0.2499   0.1775   0.5647     N
N       0.2499   0.8225   0.0647     N
Co        0.25     0.25      0.5    Co
Co        0.25     0.75      0.0    Co
N       0.2501   0.3225   0.4353     N
N       0.2501   0.6775   0.9353     N
H       0.2512   0.4246   0.7165     H
H       0.2512   0.5754   0.2165     H
C       0.2515   0.3129   0.6298     C
C       0.2515   0.6871   0.1298     C
C       0.2578   0.4865   0.9285     C
C       0.2578   0.5135   0.4285     C
C        0.259   0.4825   0.9923     C
C        0.259   0.5175   0.4923     C
H       0.2626   0.3596   0.7465     H
H       0.2626   0.6404   0.2465     H
N       0.2684   0.1163   0.6466     N
N       0.2684   0.8837   0.1466     N
C       0.2689   0.1154   0.2876     C
C       0.2689   0.8846   0.7876     C
N       0.2722   0.1887   0.4351     N
N       0.2722   0.8113   0.9351     N
N       0.2745   0.4104    0.407     N
N       0.2745   0.5896    0.907     N
N       0.2749   0.1393   0.3509     N
N       0.2749   0.8607   0.8509     N
H       0.2793   0.0628   0.9462     H
H       0.2793   0.9372   0.4462     H
H       0.2794   0.1752   0.9388     H
H       0.2794   0.8248   0.4388     H
C       0.2801   0.0601   0.9899     C
C       0.2801   0.9399   0.4899     C
H       0.2817   0.2851   0.6573     H
H       0.2817   0.7149   0.1573     H
C       0.2825   0.0521   0.1177     C
C       0.2825   0.9479   0.6177     C
H       0.2833   0.0493   0.1614     H
H       0.2833   0.9507   0.6614     H
C       0.2835   0.1706   0.6291     C
C       0.2835   0.8294   0.1291     C
C        0.286   0.3726   0.4576     C
C        0.286   0.6274   0.9576     C
H       0.2867   0.4911   0.5239     H
H       0.2867   0.5089   0.0239     H
C       0.3021    0.468   0.4091     C
C       0.3021    0.532   0.9091     C
H       0.3051   0.4782   0.3659     H
H       0.3051   0.5218   0.8659     H
H       0.3125   0.1989    0.657     H
H       0.3125   0.8011    0.157     H
C       0.3132   0.1419   0.4559     C
C       0.3132   0.8581   0.9559     C
H       0.3142   0.3799    0.501     H
H       0.3142   0.6201    0.001     H
N       0.3149   0.1114   0.4039     N
N       0.3149   0.8886   0.9039     N
C       0.3205   0.0986   0.0361     C
C       0.3205   0.9014   0.5361     C
C       0.3217   0.0946   0.0999     C
C       0.3217   0.9054   0.5999     C
C       0.3266   0.1819    0.963     C
C       0.3266   0.8181    0.463     C
H        0.337   0.1322   0.4999     H
H        0.337   0.8678   0.9999     H
H       0.3382   0.1994    0.254     H
H       0.3382   0.8006    0.754     H
C       0.3386   0.1128    0.278     C
C       0.3386   0.8872    0.778     C
H       0.3399   0.2521   0.9097     H
H       0.3399   0.7479   0.4097     H
H       0.3493    0.121   0.1315     H
H       0.3493    0.879   0.6315     H
H       0.3494   0.4689   0.4406     H
H       0.3494   0.5311   0.9406     H
H        0.359   0.0261   0.2988     H
H        0.359   0.9739   0.7988     H
C       0.3598   0.1461   0.0157     C
C       0.3598   0.8539   0.5157     C
C       0.3626   0.2277   0.9456     C
C       0.3626   0.7723   0.4456     C
N       0.3629   0.2597   0.5454     N
N       0.3629   0.7403   0.0454     N
C       0.3642    0.164   0.2596     C
C       0.3642    0.836   0.7596     C
C       0.3766   0.0611   0.2861     C
C       0.3766   0.9389   0.7861     C
H       0.3871   0.2474   0.6439     H
H       0.3871   0.7526   0.1439     H
H         0.39   0.2783   0.4642     H
H         0.39   0.7217   0.9642     H
C       0.4028   0.2562   0.6084     C
C       0.4028   0.7438   0.1084     C
C       0.4044   0.2731   0.5099     C
C       0.4044   0.7269   0.0099     C
C       0.4278   0.1635   0.2492     C
C       0.4278   0.8365   0.7492     C
C        0.429    0.156   0.0512     C
C        0.429    0.844   0.5512     C
C       0.4318   0.2376   0.9811     C
C       0.4318   0.7624   0.4811     C
H        0.436   0.3129   0.9284     H
H        0.436   0.6871   0.4284     H
C       0.4401   0.0606   0.2758     C
C       0.4401   0.9394   0.7758     C
H       0.4453   0.1985   0.2366     H
H       0.4453   0.8015   0.7366     H
H       0.4517   0.1316   0.0871     H
H       0.4517   0.8684   0.5871     H
C        0.465   0.2018   0.0338     C
C        0.465   0.7982   0.5338     C
C       0.4657   0.1118   0.2573     C
C       0.4657   0.8882   0.7573     C
H       0.4661   0.0253   0.2813     H
H       0.4661   0.9747   0.7813     H
C       0.4687   0.2916   0.9653     C
C       0.4687   0.7084   0.4653     C
N        0.469   0.2674   0.6118     N
N        0.469   0.7326   0.1118     N
N       0.4699   0.2778   0.5509     N
N       0.4699   0.7222   0.0509     N
H       0.4814   0.3184   0.0031     H
H       0.4814   0.6816   0.5031     H
H       0.4878   0.2085    0.442     H
H       0.4878   0.7915    0.942     H
H       0.5122   0.2085    0.058     H
H       0.5122   0.7915    0.558     H
H       0.5186   0.3184   0.4969     H
H       0.5186   0.6816   0.9969     H
N       0.5301   0.2778   0.9491     N
N       0.5301   0.7222   0.4491     N
N        0.531   0.2674   0.8882     N
N        0.531   0.7326   0.3882     N
C       0.5313   0.2916   0.5347     C
C       0.5313   0.7084   0.0347     C
H       0.5339   0.0253   0.2187     H
H       0.5339   0.9747   0.7187     H
C       0.5343   0.1118   0.2427     C
C       0.5343   0.8882   0.7427     C
C        0.535   0.2018   0.4662     C
C        0.535   0.7982   0.9662     C
H       0.5483   0.1316   0.4129     H
H       0.5483   0.8684   0.9129     H
H       0.5547   0.1985   0.2634     H
H       0.5547   0.8015   0.7634     H
C       0.5599   0.0606   0.2242     C
C       0.5599   0.9394   0.7242     C
H        0.564   0.3129   0.5716     H
H        0.564   0.6871   0.0716     H
C       0.5682   0.2376   0.5189     C
C       0.5682   0.7624   0.0189     C
C        0.571    0.156   0.4488     C
C        0.571    0.844   0.9488     C
C       0.5722   0.1635   0.2508     C
C       0.5722   0.8365   0.7508     C
C       0.5956   0.2731   0.9901     C
C       0.5956   0.7269   0.4901     C
C       0.5972   0.2562   0.8916     C
C       0.5972   0.7438   0.3916     C
H         0.61   0.2783   0.0358     H
H         0.61   0.7217   0.5358     H
H       0.6129   0.2474   0.8561     H
H       0.6129   0.7526   0.3561     H
C       0.6234   0.0611   0.2139     C
C       0.6234   0.9389   0.7139     C
C       0.6358    0.164   0.2404     C
C       0.6358    0.836   0.7404     C
N       0.6371   0.2597   0.9546     N
N       0.6371   0.7403   0.4546     N
C       0.6374   0.2277   0.5544     C
C       0.6374   0.7723   0.0544     C
C       0.6402   0.1461   0.4843     C
C       0.6402   0.8539   0.9843     C
H        0.641   0.0261   0.2012     H
H        0.641   0.9739   0.7012     H
H       0.6506   0.4689   0.0594     H
H       0.6506   0.5311   0.5594     H
H       0.6507    0.121   0.3685     H
H       0.6507    0.879   0.8685     H
H       0.6601   0.2521   0.5903     H
H       0.6601   0.7479   0.0903     H
C       0.6614   0.1128    0.222     C
C       0.6614   0.8872    0.722     C
H       0.6618   0.1994    0.246     H
H       0.6618   0.8006    0.746     H
H        0.663   0.1322   0.0001     H
H        0.663   0.8678   0.5001     H
C       0.6734   0.1819    0.537     C
C       0.6734   0.8181    0.037     C
C       0.6783   0.0946   0.4001     C
C       0.6783   0.9054   0.9001     C
C       0.6795   0.0986   0.4639     C
C       0.6795   0.9014   0.9639     C
N       0.6851   0.1114   0.0961     N
N       0.6851   0.8886   0.5961     N
H       0.6858   0.3799    0.999     H
H       0.6858   0.6201    0.499     H
C       0.6868   0.1419   0.0441     C
C       0.6868   0.8581   0.5441     C
H       0.6875   0.1989    0.843     H
H       0.6875   0.8011    0.343     H
H       0.6949   0.4782   0.1341     H
H       0.6949   0.5218   0.6341     H
C       0.6979    0.468   0.0909     C
C       0.6979    0.532   0.5909     C
H       0.7133   0.4911   0.9761     H
H       0.7133   0.5089   0.4761     H
C        0.714   0.3726   0.0424     C
C        0.714   0.6274   0.5424     C
C       0.7165   0.1706   0.8709     C
C       0.7165   0.8294   0.3709     C
H       0.7167   0.0493   0.3386     H
H       0.7167   0.9507   0.8386     H
C       0.7175   0.0521   0.3823     C
C       0.7175   0.9479   0.8823     C
H       0.7183   0.2851   0.8427     H
H       0.7183   0.7149   0.3427     H
C       0.7199   0.0601   0.5101     C
C       0.7199   0.9399   0.0101     C
H       0.7206   0.1752   0.5612     H
H       0.7206   0.8248   0.0612     H
H       0.7207   0.0628   0.5538     H
H       0.7207   0.9372   0.0538     H
N       0.7251   0.1393   0.1491     N
N       0.7251   0.8607   0.6491     N
N       0.7255   0.4104    0.093     N
N       0.7255   0.5896    0.593     N
N       0.7278   0.1887   0.0649     N
N       0.7278   0.8113   0.5649     N
C       0.7311   0.1154   0.2124     C
C       0.7311   0.8846   0.7124     C
N       0.7316   0.1163   0.8534     N
N       0.7316   0.8837   0.3534     N
H       0.7374   0.3596   0.7535     H
H       0.7374   0.6404   0.2535     H
C        0.741   0.4825   0.5077     C
C        0.741   0.5175   0.0077     C
C       0.7422   0.4865   0.5715     C
C       0.7422   0.5135   0.0715     C
C       0.7485   0.3129   0.8702     C
C       0.7485   0.6871   0.3702     C
H       0.7488   0.4246   0.7835     H
H       0.7488   0.5754   0.2835     H
N       0.7499   0.3225   0.0647     N
N       0.7499   0.6775   0.5647     N
Co        0.75     0.25      0.0    Co
Co        0.75     0.75      0.5    Co
N       0.7501   0.1775   0.9353     N
N       0.7501   0.8225   0.4353     N
H       0.7512   0.0754   0.2165     H
H       0.7512   0.9246   0.7165     H
C       0.7515   0.1871   0.1298     C
C       0.7515   0.8129   0.6298     C
C       0.7578   0.0135   0.4285     C
C       0.7578   0.9865   0.9285     C
C        0.759   0.0175   0.4923     C
C        0.759   0.9825   0.9923     C
H       0.7626   0.1404   0.2465     H
H       0.7626   0.8596   0.7465     H
N       0.7684   0.3837   0.1466     N
N       0.7684   0.6163   0.6466     N
C       0.7689   0.3846   0.7876     C
C       0.7689   0.6154   0.2876     C
N       0.7722   0.3113   0.9351     N
N       0.7722   0.6887   0.4351     N
N       0.7745   0.0896    0.907     N
N       0.7745   0.9104    0.407     N
N       0.7749   0.3607   0.8509     N
N       0.7749   0.6393   0.3509     N
H       0.7793   0.4372   0.4462     H
H       0.7793   0.5628   0.9462     H
H       0.7794   0.3248   0.4388     H
H       0.7794   0.6752   0.9388     H
C       0.7801   0.4399   0.4899     C
C       0.7801   0.5601   0.9899     C
H       0.7817   0.2149   0.1573     H
H       0.7817   0.7851   0.6573     H
C       0.7825   0.4479   0.6177     C
C       0.7825   0.5521   0.1177     C
H       0.7833   0.4507   0.6614     H
H       0.7833   0.5493   0.1614     H
C       0.7835   0.3294   0.1291     C
C       0.7835   0.6706   0.6291     C
C        0.786   0.1274   0.9576     C
C        0.786   0.8726   0.4576     C
H       0.7867   0.0089   0.0239     H
H       0.7867   0.9911   0.5239     H
C       0.8021    0.032   0.9091     C
C       0.8021    0.968   0.4091     C
H       0.8051   0.0218   0.8659     H
H       0.8051   0.9782   0.3659     H
H       0.8125   0.3011    0.157     H
H       0.8125   0.6989    0.657     H
C       0.8132   0.3581   0.9559     C
C       0.8132   0.6419   0.4559     C
H       0.8142   0.1201    0.001     H
H       0.8142   0.8799    0.501     H
N       0.8149   0.3886   0.9039     N
N       0.8149   0.6114   0.4039     N
C       0.8205   0.4014   0.5361     C
C       0.8205   0.5986   0.0361     C
C       0.8217   0.4054   0.5999     C
C       0.8217   0.5946   0.0999     C
C       0.8266   0.3181    0.463     C
C       0.8266   0.6819    0.963     C
H        0.837   0.3678   0.9999     H
H        0.837   0.6322   0.4999     H
H       0.8382   0.3006    0.754     H
H       0.8382   0.6994    0.254     H
C       0.8386   0.3872    0.778     C
C       0.8386   0.6128    0.278     C
H       0.8399   0.2479   0.4097     H
H       0.8399   0.7521   0.9097     H
H       0.8493    0.379   0.6315     H
H       0.8493    0.621   0.1315     H
H       0.8494   0.0311   0.9406     H
H       0.8494   0.9689   0.4406     H
H        0.859   0.4739   0.7988     H
H        0.859   0.5261   0.2988     H
C       0.8598   0.3539   0.5157     C
C       0.8598   0.6461   0.0157     C
C       0.8626   0.2723   0.4456     C
C       0.8626   0.7277   0.9456     C
N       0.8629   0.2403   0.0454     N
N       0.8629   0.7597   0.5454     N
C       0.8642    0.336   0.7596     C
C       0.8642    0.664   0.2596     C
C       0.8766   0.4389   0.7861     C
C       0.8766   0.5611   0.2861     C
H       0.8871   0.2526   0.1439     H
H       0.8871   0.7474   0.6439     H
H         0.89   0.2217   0.9642     H
H         0.89   0.7783   0.4642     H
C       0.9028   0.2438   0.1084     C
C       0.9028   0.7562   0.6084     C
C       0.9044   0.2269   0.0099     C
C       0.9044   0.7731   0.5099     C
C       0.9278   0.3365   0.7492     C
C       0.9278   0.6635   0.2492     C
C        0.929    0.344   0.5512     C
C        0.929    0.656   0.0512     C
C       0.9318   0.2624   0.4811     C
C       0.9318   0.7376   0.9811     C
H        0.936   0.1871   0.4284     H
H        0.936   0.8129   0.9284     H
C       0.9401   0.4394   0.7758     C
C       0.9401   0.5606   0.2758     C
H       0.9453   0.3015   0.7366     H
H       0.9453   0.6985   0.2366     H
H       0.9517   0.3684   0.5871     H
H       0.9517   0.6316   0.0871     H
C        0.965   0.2982   0.5338     C
C        0.965   0.7018   0.0338     C
C       0.9657   0.3882   0.7573     C
C       0.9657   0.6118   0.2573     C
H       0.9661   0.4747   0.7813     H
H       0.9661   0.5253   0.2813     H
C       0.9687   0.2084   0.4653     C
C       0.9687   0.7916   0.9653     C
N        0.969   0.2326   0.1118     N
N        0.969   0.7674   0.6118     N
N       0.9699   0.2222   0.0509     N
N       0.9699   0.7778   0.5509     N
H       0.9814   0.1816   0.5031     H
H       0.9814   0.8184   0.0031     H
H       0.9878   0.2915    0.942     H
H       0.9878   0.7085    0.442     H
