data_I
_chemical_name_common  '/home/zhangsd/repos/MofS-CGCNN/ML/data/WS24/clean_cifs/WUPTUY'
_cell_length_a 39.89610
_cell_length_b 39.89610
_cell_length_c 39.89610
_cell_angle_alpha 90.00000
_cell_angle_beta  90.00000
_cell_angle_gamma 90.00000
_space_group_name_H-M_alt      'P 1'


loop_
_space_group_symop_operation_xyz
  'x, y, z' 

loop_
_atom_site_label
_atom_site_fract_x
_atom_site_fract_y
_atom_site_fract_z
_atom_site_type_symbol
C      0.00439  0.10754  0.46271     C
C      0.00439  0.14246  0.78729     C
C      0.00439  0.28729  0.64246     C
C      0.00439  0.46271  0.10754     C
C      0.00439  0.60754  0.96271     C
C      0.00439  0.64246  0.28729     C
C      0.00439  0.78729  0.14246     C
C      0.00439  0.96271  0.60754     C
H       0.0106   0.1061   0.4403     H
H       0.0106   0.1439   0.8097     H
H       0.0106   0.3097   0.6439     H
H       0.0106   0.4403   0.1061     H
H       0.0106   0.6061   0.9403     H
H       0.0106   0.6439   0.3097     H
H       0.0106   0.8097   0.1439     H
H       0.0106   0.9403   0.6061     H
C       0.0132  0.27852  0.86267     C
C       0.0132  0.36267  0.77852     C
C       0.0132  0.38733  0.97148     C
C       0.0132  0.47148  0.88733     C
C       0.0132  0.77852  0.36267     C
C       0.0132  0.86267  0.27852     C
C       0.0132  0.88733  0.47148     C
C       0.0132  0.97148  0.38733     C
H       0.0194    0.301   0.8639     H
H       0.0194   0.3639    0.801     H
H       0.0194   0.3861    0.949     H
H       0.0194    0.449   0.8861     H
H       0.0194    0.801   0.3639     H
H       0.0194   0.8639    0.301     H
H       0.0194   0.8861    0.449     H
H       0.0194    0.949   0.3861     H
C      0.01981  0.01981  0.61592     C
C      0.01981  0.11592  0.51981     C
C      0.01981  0.13408  0.73019     C
C      0.01981  0.23019  0.63408     C
C      0.01981  0.51981  0.11592     C
C      0.01981  0.61592  0.01981     C
C      0.01981  0.63408  0.23019     C
C      0.01981  0.73019  0.13408     C
C      0.02852  0.11267   0.4868     C
C      0.02852  0.13733   0.7632     C
C      0.02852   0.2632  0.63733     C
C      0.02852   0.4868  0.11267     C
C      0.02852  0.61267   0.9868     C
C      0.02852  0.63733   0.2632     C
C      0.02852   0.7632  0.13733     C
C      0.02852   0.9868  0.61267     C
C      0.02866  0.02866  0.39548     C
C      0.02866  0.22134  0.85452     C
C      0.02866  0.35452  0.72134     C
C      0.02866  0.39548  0.02866     C
C      0.02866  0.52866  0.89548     C
C      0.02866  0.72134  0.35452     C
C      0.02866  0.85452  0.22134     C
C      0.02866  0.89548  0.52866     C
O        0.036  0.07607  0.62407     O
O        0.036  0.12407  0.57607     O
O        0.036  0.12593  0.67393     O
O        0.036  0.17393  0.62593     O
O        0.036  0.57607  0.12407     O
O        0.036  0.62407  0.07607     O
O        0.036  0.62593  0.17393     O
O        0.036  0.67393  0.12593     O
C      0.03729  0.25439  0.85754     C
C      0.03729  0.35754  0.75439     C
C      0.03729  0.39246  0.99561     C
C      0.03729  0.49561  0.89246     C
C      0.03729  0.75439  0.35754     C
C      0.03729  0.85754  0.25439     C
C      0.03729  0.89246  0.49561     C
C      0.03729  0.99561  0.39246     C
C      0.04621  0.04621  0.62167     C
C      0.04621  0.12167  0.54621     C
C      0.04621  0.12833  0.70379     C
C      0.04621  0.20379  0.62833     C
C      0.04621  0.54621  0.12167     C
C      0.04621  0.62167  0.04621     C
C      0.04621  0.62833  0.20379     C
C      0.04621  0.70379  0.12833     C
H        0.051   0.1139   0.4806     H
H        0.051   0.1361   0.7694     H
H        0.051   0.2694   0.6361     H
H        0.051   0.4806   0.1139     H
H        0.051   0.6139   0.9806     H
H        0.051   0.6361   0.2694     H
H        0.051   0.7694   0.1361     H
H        0.051   0.9806   0.6139     H
C      0.05424  0.05424  0.40064     C
C      0.05424  0.19576  0.84936     C
C      0.05424  0.34936  0.69576     C
C      0.05424  0.40064  0.05424     C
C      0.05424  0.55424  0.90064     C
C      0.05424  0.69576  0.34936     C
C      0.05424  0.84936  0.19576     C
C      0.05424  0.90064  0.55424     C
H       0.0597   0.2606   0.8561     H
H       0.0597   0.3561   0.7606     H
H       0.0597   0.3939   0.9894     H
H       0.0597   0.4894   0.8939     H
H       0.0597   0.7606   0.3561     H
H       0.0597   0.8561   0.2606     H
H       0.0597   0.8939   0.4894     H
H       0.0597   0.9894   0.3939     H
Zr     0.06281    0.125    0.625    Zr
Zr     0.06281    0.625    0.125    Zr
H       0.0712   0.1118   0.8372     H
H       0.0712   0.1382   0.4128     H
H       0.0712   0.3372   0.6118     H
H       0.0712   0.4128   0.1382     H
H       0.0712   0.6118   0.3372     H
H       0.0712   0.6382   0.9128     H
H       0.0712   0.8372   0.1118     H
H       0.0712   0.9128   0.6382     H
C      0.07475  0.07475  0.40525     C
C      0.07475  0.17525  0.84475     C
C      0.07475  0.34475  0.67525     C
C      0.07475  0.40525  0.07475     C
C      0.07475  0.57475  0.90525     C
C      0.07475  0.67525  0.34475     C
C      0.07475  0.84475  0.17525     C
C      0.07475  0.90525  0.57475     C
O      0.07607    0.036  0.62407     O
O      0.07607  0.12407    0.536     O
O      0.07607  0.12593    0.714     O
O      0.07607    0.214  0.62593     O
O      0.07607    0.536  0.12407     O
O      0.07607  0.62407    0.036     O
O      0.07607  0.62593    0.214     O
O      0.07607    0.714  0.12593     O
H       0.0872   0.3212   0.8882     H
H       0.0872   0.3618   0.9288     H
H       0.0872   0.3882   0.8212     H
H       0.0872   0.4288   0.8618     H
H       0.0872   0.8212   0.3882     H
H       0.0872   0.8618   0.4288     H
H       0.0872   0.8882   0.3212     H
H       0.0872   0.9288   0.3618     H
C       0.0897  0.34341  0.88171     C
C       0.0897  0.36829  0.90659     C
C       0.0897  0.38171  0.84341     C
C       0.0897  0.40659  0.86829     C
C       0.0897  0.84341  0.38171     C
C       0.0897  0.86829  0.40659     C
C       0.0897  0.88171  0.34341     C
C       0.0897  0.90659  0.36829     C
O      0.09136  0.09136  0.65864     O
O      0.09136  0.15864  0.59136     O
O      0.09136  0.59136  0.15864     O
O      0.09136  0.65864  0.09136     O
C      0.09296  0.35012  0.85012     C
C      0.09296  0.39988  0.89988     C
C      0.09296  0.85012  0.35012     C
C      0.09296  0.89988  0.39988     C
C      0.09341  0.11829   0.8397     C
C      0.09341  0.13171   0.4103     C
C      0.09341   0.3397  0.61829     C
C      0.09341   0.4103  0.13171     C
C      0.09341  0.61829   0.3397     C
C      0.09341  0.63171   0.9103     C
C      0.09341   0.8397  0.11829     C
C      0.09341   0.9103  0.63171     C
C      0.09475  0.32475  0.82475     C
C      0.09475  0.42525  0.92525     C
C      0.09475  0.82475  0.32475     C
C      0.09475  0.92525  0.42525     C
O      0.09735  0.09735  0.59735     O
O      0.09735  0.15265  0.65265     O
O      0.09735  0.59735  0.09735     O
O      0.09735  0.65265  0.15265     O
C      0.09936  0.30424  0.80424     C
C      0.09936  0.44576  0.94576     C
C      0.09936  0.80424  0.30424     C
C      0.09936  0.94576  0.44576     C
C      0.10012  0.10012  0.40704     C
C      0.10012  0.14988  0.84296     C
C      0.10012  0.34296  0.64988     C
C      0.10012  0.40704  0.10012     C
C      0.10012  0.60012  0.90704     C
C      0.10012  0.64988  0.34296     C
C      0.10012  0.84296  0.14988     C
C      0.10012  0.90704  0.60012     C
C      0.10452  0.27866  0.77866     C
C      0.10452  0.47134  0.97134     C
C      0.10452  0.77866  0.27866     C
C      0.10452  0.97134  0.47134     C
H       0.1061   0.0106   0.4403     H
H       0.1061   0.2394   0.8097     H
H       0.1061   0.3097   0.7394     H
H       0.1061   0.4403   0.0106     H
H       0.1061   0.5106   0.9403     H
H       0.1061   0.7394   0.3097     H
H       0.1061   0.8097   0.2394     H
H       0.1061   0.9403   0.5106     H
C      0.10754  0.00439  0.46271     C
C      0.10754  0.24561  0.78729     C
C      0.10754  0.28729  0.74561     C
C      0.10754  0.46271  0.00439     C
C      0.10754  0.50439  0.96271     C
C      0.10754  0.74561  0.28729     C
C      0.10754  0.78729  0.24561     C
C      0.10754  0.96271  0.50439     C
H       0.1118   0.0712   0.8372     H
H       0.1118   0.1788   0.4128     H
H       0.1118   0.3372   0.5712     H
H       0.1118   0.4128   0.1788     H
H       0.1118   0.5712   0.3372     H
H       0.1118   0.6788   0.9128     H
H       0.1118   0.8372   0.0712     H
H       0.1118   0.9128   0.6788     H
C      0.11267  0.02852   0.4868     C
C      0.11267  0.22148   0.7632     C
C      0.11267   0.2632  0.72148     C
C      0.11267   0.4868  0.02852     C
C      0.11267  0.52852   0.9868     C
C      0.11267  0.72148   0.2632     C
C      0.11267   0.7632  0.22148     C
C      0.11267   0.9868  0.52852     C
H       0.1139    0.051   0.4806     H
H       0.1139    0.199   0.7694     H
H       0.1139   0.2694    0.699     H
H       0.1139   0.4806    0.051     H
H       0.1139    0.551   0.9806     H
H       0.1139    0.699   0.2694     H
H       0.1139   0.7694    0.199     H
H       0.1139   0.9806    0.551     H
C      0.11592  0.01981  0.51981     C
C      0.11592  0.23019  0.73019     C
C      0.11592  0.51981  0.01981     C
C      0.11592  0.73019  0.23019     C
C      0.11829  0.09341   0.8397     C
C      0.11829  0.15659   0.4103     C
C      0.11829   0.3397  0.59341     C
C      0.11829   0.4103  0.15659     C
C      0.11829  0.59341   0.3397     C
C      0.11829  0.65659   0.9103     C
C      0.11829   0.8397  0.09341     C
C      0.11829   0.9103  0.65659     C
C      0.12167  0.04621  0.54621     C
C      0.12167  0.20379  0.70379     C
C      0.12167  0.54621  0.04621     C
C      0.12167  0.70379  0.20379     C
O      0.12407    0.036  0.57607     O
O      0.12407  0.07607    0.536     O
O      0.12407  0.17393    0.714     O
O      0.12407    0.214  0.67393     O
O      0.12407    0.536  0.07607     O
O      0.12407  0.57607    0.036     O
O      0.12407  0.67393    0.214     O
O      0.12407    0.714  0.17393     O
Zr       0.125  0.06281    0.625    Zr
Zr       0.125    0.125  0.56281    Zr
Zr       0.125    0.125  0.68719    Zr
Zr       0.125  0.18719    0.625    Zr
Zr       0.125  0.56281    0.125    Zr
Zr       0.125    0.625  0.06281    Zr
Zr       0.125    0.625  0.18719    Zr
Zr       0.125  0.68719    0.125    Zr
O      0.12593    0.036  0.67393     O
O      0.12593  0.07607    0.714     O
O      0.12593  0.17393    0.536     O
O      0.12593    0.214  0.57607     O
O      0.12593    0.536  0.17393     O
O      0.12593  0.57607    0.214     O
O      0.12593  0.67393    0.036     O
O      0.12593    0.714  0.07607     O
C      0.12833  0.04621  0.70379     C
C      0.12833  0.20379  0.54621     C
C      0.12833  0.54621  0.20379     C
C      0.12833  0.70379  0.04621     C
C      0.13171  0.09341   0.4103     C
C      0.13171  0.15659   0.8397     C
C      0.13171   0.3397  0.65659     C
C      0.13171   0.4103  0.09341     C
C      0.13171  0.59341   0.9103     C
C      0.13171  0.65659   0.3397     C
C      0.13171   0.8397  0.15659     C
C      0.13171   0.9103  0.59341     C
C      0.13408  0.01981  0.73019     C
C      0.13408  0.23019  0.51981     C
C      0.13408  0.51981  0.23019     C
C      0.13408  0.73019  0.01981     C
H       0.1361    0.051   0.7694     H
H       0.1361    0.199   0.4806     H
H       0.1361   0.2694    0.551     H
H       0.1361   0.4806    0.199     H
H       0.1361    0.551   0.2694     H
H       0.1361    0.699   0.9806     H
H       0.1361   0.7694    0.051     H
H       0.1361   0.9806    0.699     H
C      0.13733  0.02852   0.7632     C
C      0.13733  0.22148   0.4868     C
C      0.13733   0.2632  0.52852     C
C      0.13733   0.4868  0.22148     C
C      0.13733  0.52852   0.2632     C
C      0.13733  0.72148   0.9868     C
C      0.13733   0.7632  0.02852     C
C      0.13733   0.9868  0.72148     C
H       0.1382   0.0712   0.4128     H
H       0.1382   0.1788   0.8372     H
H       0.1382   0.3372   0.6788     H
H       0.1382   0.4128   0.0712     H
H       0.1382   0.5712   0.9128     H
H       0.1382   0.6788   0.3372     H
H       0.1382   0.8372   0.1788     H
H       0.1382   0.9128   0.5712     H
C      0.14246  0.00439  0.78729     C
C      0.14246  0.24561  0.46271     C
C      0.14246  0.28729  0.50439     C
C      0.14246  0.46271  0.24561     C
C      0.14246  0.50439  0.28729     C
C      0.14246  0.74561  0.96271     C
C      0.14246  0.78729  0.00439     C
C      0.14246  0.96271  0.74561     C
H       0.1439   0.0106   0.8097     H
H       0.1439   0.2394   0.4403     H
H       0.1439   0.3097   0.5106     H
H       0.1439   0.4403   0.2394     H
H       0.1439   0.5106   0.3097     H
H       0.1439   0.7394   0.9403     H
H       0.1439   0.8097   0.0106     H
H       0.1439   0.9403   0.7394     H
C      0.14548  0.27866  0.47134     C
C      0.14548  0.47134  0.27866     C
C      0.14548  0.77866  0.97134     C
C      0.14548  0.97134  0.77866     C
C      0.14988  0.10012  0.84296     C
C      0.14988  0.14988  0.40704     C
C      0.14988  0.34296  0.60012     C
C      0.14988  0.40704  0.14988     C
C      0.14988  0.60012  0.34296     C
C      0.14988  0.64988  0.90704     C
C      0.14988  0.84296  0.10012     C
C      0.14988  0.90704  0.64988     C
C      0.15064  0.30424  0.44576     C
C      0.15064  0.44576  0.30424     C
C      0.15064  0.80424  0.94576     C
C      0.15064  0.94576  0.80424     C
O      0.15265  0.09735  0.65265     O
O      0.15265  0.15265  0.59735     O
O      0.15265  0.59735  0.15265     O
O      0.15265  0.65265  0.09735     O
C      0.15525  0.32475  0.42525     C
C      0.15525  0.42525  0.32475     C
C      0.15525  0.82475  0.92525     C
C      0.15525  0.92525  0.82475     C
C      0.15659  0.11829   0.4103     C
C      0.15659  0.13171   0.8397     C
C      0.15659   0.3397  0.63171     C
C      0.15659   0.4103  0.11829     C
C      0.15659  0.61829   0.9103     C
C      0.15659  0.63171   0.3397     C
C      0.15659   0.8397  0.13171     C
C      0.15659   0.9103  0.61829     C
C      0.15704  0.35012  0.39988     C
C      0.15704  0.39988  0.35012     C
C      0.15704  0.85012  0.89988     C
C      0.15704  0.89988  0.85012     C
O      0.15864  0.09136  0.59136     O
O      0.15864  0.15864  0.65864     O
O      0.15864  0.59136  0.09136     O
O      0.15864  0.65864  0.15864     O
C       0.1603  0.34341  0.36829     C
C       0.1603  0.36829  0.34341     C
C       0.1603  0.38171  0.40659     C
C       0.1603  0.40659  0.38171     C
C       0.1603  0.84341  0.86829     C
C       0.1603  0.86829  0.84341     C
C       0.1603  0.88171  0.90659     C
C       0.1603  0.90659  0.88171     C
H       0.1628   0.3212   0.3618     H
H       0.1628   0.3618   0.3212     H
H       0.1628   0.3882   0.4288     H
H       0.1628   0.4288   0.3882     H
H       0.1628   0.8212   0.8618     H
H       0.1628   0.8618   0.8212     H
H       0.1628   0.8882   0.9288     H
H       0.1628   0.9288   0.8882     H
O      0.17393    0.036  0.62593     O
O      0.17393  0.12407    0.714     O
O      0.17393  0.12593    0.536     O
O      0.17393    0.214  0.62407     O
O      0.17393    0.536  0.12593     O
O      0.17393  0.62407    0.214     O
O      0.17393  0.62593    0.036     O
O      0.17393    0.714  0.12407     O
C      0.17525  0.07475  0.84475     C
C      0.17525  0.17525  0.40525     C
C      0.17525  0.34475  0.57475     C
C      0.17525  0.40525  0.17525     C
C      0.17525  0.57475  0.34475     C
C      0.17525  0.67525  0.90525     C
C      0.17525  0.84475  0.07475     C
C      0.17525  0.90525  0.67525     C
H       0.1788   0.1118   0.4128     H
H       0.1788   0.1382   0.8372     H
H       0.1788   0.3372   0.6382     H
H       0.1788   0.4128   0.1118     H
H       0.1788   0.6118   0.9128     H
H       0.1788   0.6382   0.3372     H
H       0.1788   0.8372   0.1382     H
H       0.1788   0.9128   0.6118     H
Zr     0.18719    0.125    0.625    Zr
Zr     0.18719    0.625    0.125    Zr
H       0.1903   0.2606   0.3939     H
H       0.1903   0.3561   0.4894     H
H       0.1903   0.3939   0.2606     H
H       0.1903   0.4894   0.3561     H
H       0.1903   0.7606   0.8939     H
H       0.1903   0.8561   0.9894     H
H       0.1903   0.8939   0.7606     H
H       0.1903   0.9894   0.8561     H
C      0.19576  0.05424  0.84936     C
C      0.19576  0.19576  0.40064     C
C      0.19576  0.34936  0.55424     C
C      0.19576  0.40064  0.19576     C
C      0.19576  0.55424  0.34936     C
C      0.19576  0.69576  0.90064     C
C      0.19576  0.84936  0.05424     C
C      0.19576  0.90064  0.69576     C
H        0.199   0.1139   0.7694     H
H        0.199   0.1361   0.4806     H
H        0.199   0.2694   0.6139     H
H        0.199   0.4806   0.1361     H
H        0.199   0.6139   0.2694     H
H        0.199   0.6361   0.9806     H
H        0.199   0.7694   0.1139     H
H        0.199   0.9806   0.6361     H
C      0.20379  0.04621  0.62833     C
C      0.20379  0.12167  0.70379     C
C      0.20379  0.12833  0.54621     C
C      0.20379  0.20379  0.62167     C
C      0.20379  0.54621  0.12833     C
C      0.20379  0.62167  0.20379     C
C      0.20379  0.62833  0.04621     C
C      0.20379  0.70379  0.12167     C
C      0.21271  0.25439  0.39246     C
C      0.21271  0.35754  0.49561     C
C      0.21271  0.39246  0.25439     C
C      0.21271  0.49561  0.35754     C
C      0.21271  0.75439  0.89246     C
C      0.21271  0.85754  0.99561     C
C      0.21271  0.89246  0.75439     C
C      0.21271  0.99561  0.85754     C
O        0.214  0.07607  0.62593     O
O        0.214  0.12407  0.67393     O
O        0.214  0.12593  0.57607     O
O        0.214  0.17393  0.62407     O
O        0.214  0.57607  0.12593     O
O        0.214  0.62407  0.17393     O
O        0.214  0.62593  0.07607     O
O        0.214  0.67393  0.12407     O
C      0.22134  0.02866  0.85452     C
C      0.22134  0.22134  0.39548     C
C      0.22134  0.35452  0.52866     C
C      0.22134  0.39548  0.22134     C
C      0.22134  0.52866  0.35452     C
C      0.22134  0.72134  0.89548     C
C      0.22134  0.85452  0.02866     C
C      0.22134  0.89548  0.72134     C
C      0.22148  0.11267   0.7632     C
C      0.22148  0.13733   0.4868     C
C      0.22148   0.2632  0.61267     C
C      0.22148   0.4868  0.13733     C
C      0.22148  0.61267   0.2632     C
C      0.22148  0.63733   0.9868     C
C      0.22148   0.7632  0.11267     C
C      0.22148   0.9868  0.63733     C
C      0.23019  0.01981  0.63408     C
C      0.23019  0.11592  0.73019     C
C      0.23019  0.13408  0.51981     C
C      0.23019  0.23019  0.61592     C
C      0.23019  0.51981  0.13408     C
C      0.23019  0.61592  0.23019     C
C      0.23019  0.63408  0.01981     C
C      0.23019  0.73019  0.11592     C
H       0.2306    0.301   0.3861     H
H       0.2306   0.3639    0.449     H
H       0.2306   0.3861    0.301     H
H       0.2306    0.449   0.3639     H
H       0.2306    0.801   0.8861     H
H       0.2306   0.8639    0.949     H
H       0.2306   0.8861    0.801     H
H       0.2306    0.949   0.8639     H
C       0.2368  0.27852  0.38733     C
C       0.2368  0.36267  0.47148     C
C       0.2368  0.38733  0.27852     C
C       0.2368  0.47148  0.36267     C
C       0.2368  0.77852  0.88733     C
C       0.2368  0.86267  0.97148     C
C       0.2368  0.88733  0.77852     C
C       0.2368  0.97148  0.86267     C
H       0.2394   0.1061   0.8097     H
H       0.2394   0.1439   0.4403     H
H       0.2394   0.3097   0.6061     H
H       0.2394   0.4403   0.1439     H
H       0.2394   0.6061   0.3097     H
H       0.2394   0.6439   0.9403     H
H       0.2394   0.8097   0.1061     H
H       0.2394   0.9403   0.6439     H
C      0.24561  0.10754  0.78729     C
C      0.24561  0.14246  0.46271     C
C      0.24561  0.28729  0.60754     C
C      0.24561  0.46271  0.14246     C
C      0.24561  0.60754  0.28729     C
C      0.24561  0.64246  0.96271     C
C      0.24561  0.78729  0.10754     C
C      0.24561  0.96271  0.64246     C
C      0.25439  0.03729  0.85754     C
C      0.25439  0.21271  0.39246     C
C      0.25439  0.35754  0.53729     C
C      0.25439  0.39246  0.21271     C
C      0.25439  0.53729  0.35754     C
C      0.25439  0.71271  0.89246     C
C      0.25439  0.85754  0.03729     C
C      0.25439  0.89246  0.71271     C
H       0.2606   0.0597   0.8561     H
H       0.2606   0.1903   0.3939     H
H       0.2606   0.3561   0.5597     H
H       0.2606   0.3939   0.1903     H
H       0.2606   0.5597   0.3561     H
H       0.2606   0.6903   0.8939     H
H       0.2606   0.8561   0.0597     H
H       0.2606   0.8939   0.6903     H
C       0.2632  0.02852  0.63733     C
C       0.2632  0.11267  0.72148     C
C       0.2632  0.13733  0.52852     C
C       0.2632  0.22148  0.61267     C
C       0.2632  0.52852  0.13733     C
C       0.2632  0.61267  0.22148     C
C       0.2632  0.63733  0.02852     C
C       0.2632  0.72148  0.11267     C
H       0.2694    0.051   0.6361     H
H       0.2694   0.1139    0.699     H
H       0.2694   0.1361    0.551     H
H       0.2694    0.199   0.6139     H
H       0.2694    0.551   0.1361     H
H       0.2694   0.6139    0.199     H
H       0.2694   0.6361    0.051     H
H       0.2694    0.699   0.1139     H
C      0.26981  0.26981  0.38408     C
C      0.26981  0.36592  0.48019     C
C      0.26981  0.38408  0.26981     C
C      0.26981  0.48019  0.36592     C
C      0.26981  0.76981  0.88408     C
C      0.26981  0.86592  0.98019     C
C      0.26981  0.88408  0.76981     C
C      0.26981  0.98019  0.86592     C
C      0.27852   0.0132  0.86267     C
C      0.27852   0.2368  0.38733     C
C      0.27852  0.36267   0.5132     C
C      0.27852  0.38733   0.2368     C
C      0.27852   0.5132  0.36267     C
C      0.27852   0.7368  0.88733     C
C      0.27852  0.86267   0.0132     C
C      0.27852  0.88733   0.7368     C
C      0.27866  0.10452  0.77866     C
C      0.27866  0.14548  0.47134     C
C      0.27866  0.27866  0.60452     C
C      0.27866  0.47134  0.14548     C
C      0.27866  0.60452  0.27866     C
C      0.27866  0.64548  0.97134     C
C      0.27866  0.77866  0.10452     C
C      0.27866  0.97134  0.64548     C
O        0.286  0.32607  0.37593     O
O        0.286  0.37407  0.42393     O
O        0.286  0.37593  0.32607     O
O        0.286  0.42393  0.37407     O
O        0.286  0.82607  0.87593     O
O        0.286  0.87407  0.92393     O
O        0.286  0.87593  0.82607     O
O        0.286  0.92393  0.87407     O
C      0.28729  0.00439  0.64246     C
C      0.28729  0.10754  0.74561     C
C      0.28729  0.14246  0.50439     C
C      0.28729  0.24561  0.60754     C
C      0.28729  0.50439  0.14246     C
C      0.28729  0.60754  0.24561     C
C      0.28729  0.64246  0.00439     C
C      0.28729  0.74561  0.10754     C
C      0.29621  0.29621  0.37833     C
C      0.29621  0.37167  0.45379     C
C      0.29621  0.37833  0.29621     C
C      0.29621  0.45379  0.37167     C
C      0.29621  0.79621  0.87833     C
C      0.29621  0.87167  0.95379     C
C      0.29621  0.87833  0.79621     C
C      0.29621  0.95379  0.87167     C
H        0.301   0.0194   0.8639     H
H        0.301   0.2306   0.3861     H
H        0.301   0.3639   0.5194     H
H        0.301   0.3861   0.2306     H
H        0.301   0.5194   0.3639     H
H        0.301   0.7306   0.8861     H
H        0.301   0.8639   0.0194     H
H        0.301   0.8861   0.7306     H
C      0.30424  0.09936  0.80424     C
C      0.30424  0.15064  0.44576     C
C      0.30424  0.30424  0.59936     C
C      0.30424  0.44576  0.15064     C
C      0.30424  0.59936  0.30424     C
C      0.30424  0.65064  0.94576     C
C      0.30424  0.80424  0.09936     C
C      0.30424  0.94576  0.65064     C
H       0.3097   0.0106   0.6439     H
H       0.3097   0.1061   0.7394     H
H       0.3097   0.1439   0.5106     H
H       0.3097   0.2394   0.6061     H
H       0.3097   0.5106   0.1439     H
H       0.3097   0.6061   0.2394     H
H       0.3097   0.6439   0.0106     H
H       0.3097   0.7394   0.1061     H
Zr     0.31281    0.375    0.375    Zr
Zr     0.31281    0.875    0.875    Zr
H       0.3212   0.0872   0.8882     H
H       0.3212   0.1628   0.3618     H
H       0.3212   0.3618   0.1628     H
H       0.3212   0.3882   0.5872     H
H       0.3212   0.5872   0.3882     H
H       0.3212   0.6628   0.8618     H
H       0.3212   0.8618   0.6628     H
H       0.3212   0.8882   0.0872     H
C      0.32475  0.09475  0.82475     C
C      0.32475  0.15525  0.42525     C
C      0.32475  0.32475  0.59475     C
C      0.32475  0.42525  0.15525     C
C      0.32475  0.59475  0.32475     C
C      0.32475  0.65525  0.92525     C
C      0.32475  0.82475  0.09475     C
C      0.32475  0.92525  0.65525     C
O      0.32607    0.286  0.37593     O
O      0.32607  0.37407    0.464     O
O      0.32607  0.37593    0.286     O
O      0.32607    0.464  0.37407     O
O      0.32607    0.786  0.87593     O
O      0.32607  0.87407    0.964     O
O      0.32607  0.87593    0.786     O
O      0.32607    0.964  0.87407     O
H       0.3372   0.0712   0.6118     H
H       0.3372   0.1118   0.5712     H
H       0.3372   0.1382   0.6788     H
H       0.3372   0.1788   0.6382     H
H       0.3372   0.5712   0.1118     H
H       0.3372   0.6118   0.0712     H
H       0.3372   0.6382   0.1788     H
H       0.3372   0.6788   0.1382     H
C       0.3397  0.09341  0.61829     C
C       0.3397  0.11829  0.59341     C
C       0.3397  0.13171  0.65659     C
C       0.3397  0.15659  0.63171     C
C       0.3397  0.59341  0.11829     C
C       0.3397  0.61829  0.09341     C
C       0.3397  0.63171  0.15659     C
C       0.3397  0.65659  0.13171     C
O      0.34136  0.34136  0.34136     O
O      0.34136  0.40864  0.40864     O
O      0.34136  0.84136  0.84136     O
O      0.34136  0.90864  0.90864     O
C      0.34296  0.10012  0.64988     C
C      0.34296  0.14988  0.60012     C
C      0.34296  0.60012  0.14988     C
C      0.34296  0.64988  0.10012     C
C      0.34341   0.0897  0.88171     C
C      0.34341   0.1603  0.36829     C
C      0.34341  0.36829   0.1603     C
C      0.34341  0.38171   0.5897     C
C      0.34341   0.5897  0.38171     C
C      0.34341   0.6603  0.86829     C
C      0.34341  0.86829   0.6603     C
C      0.34341  0.88171   0.0897     C
C      0.34475  0.07475  0.67525     C
C      0.34475  0.17525  0.57475     C
C      0.34475  0.57475  0.17525     C
C      0.34475  0.67525  0.07475     C
O      0.34735  0.34735  0.40265     O
O      0.34735  0.40265  0.34735     O
O      0.34735  0.84735  0.90265     O
O      0.34735  0.90265  0.84735     O
C      0.34936  0.05424  0.69576     C
C      0.34936  0.19576  0.55424     C
C      0.34936  0.55424  0.19576     C
C      0.34936  0.69576  0.05424     C
C      0.35012  0.09296  0.85012     C
C      0.35012  0.15704  0.39988     C
C      0.35012  0.35012  0.59296     C
C      0.35012  0.39988  0.15704     C
C      0.35012  0.59296  0.35012     C
C      0.35012  0.65704  0.89988     C
C      0.35012  0.85012  0.09296     C
C      0.35012  0.89988  0.65704     C
C      0.35452  0.02866  0.72134     C
C      0.35452  0.22134  0.52866     C
C      0.35452  0.52866  0.22134     C
C      0.35452  0.72134  0.02866     C
H       0.3561   0.0597   0.7606     H
H       0.3561   0.1903   0.4894     H
H       0.3561   0.2606   0.5597     H
H       0.3561   0.4894   0.1903     H
H       0.3561   0.5597   0.2606     H
H       0.3561   0.6903   0.9894     H
H       0.3561   0.7606   0.0597     H
H       0.3561   0.9894   0.6903     H
C      0.35754  0.03729  0.75439     C
C      0.35754  0.21271  0.49561     C
C      0.35754  0.25439  0.53729     C
C      0.35754  0.49561  0.21271     C
C      0.35754  0.53729  0.25439     C
C      0.35754  0.71271  0.99561     C
C      0.35754  0.75439  0.03729     C
C      0.35754  0.99561  0.71271     C
H       0.3618   0.0872   0.9288     H
H       0.3618   0.1628   0.3212     H
H       0.3618   0.3212   0.1628     H
H       0.3618   0.4288   0.5872     H
H       0.3618   0.5872   0.4288     H
H       0.3618   0.6628   0.8212     H
H       0.3618   0.8212   0.6628     H
H       0.3618   0.9288   0.0872     H
C      0.36267   0.0132  0.77852     C
C      0.36267   0.2368  0.47148     C
C      0.36267  0.27852   0.5132     C
C      0.36267  0.47148   0.2368     C
C      0.36267   0.5132  0.27852     C
C      0.36267   0.7368  0.97148     C
C      0.36267  0.77852   0.0132     C
C      0.36267  0.97148   0.7368     C
H       0.3639   0.0194    0.801     H
H       0.3639   0.2306    0.449     H
H       0.3639    0.301   0.5194     H
H       0.3639    0.449   0.2306     H
H       0.3639   0.5194    0.301     H
H       0.3639   0.7306    0.949     H
H       0.3639    0.801   0.0194     H
H       0.3639    0.949   0.7306     H
C      0.36592  0.26981  0.48019     C
C      0.36592  0.48019  0.26981     C
C      0.36592  0.76981  0.98019     C
C      0.36592  0.98019  0.76981     C
C      0.36829   0.0897  0.90659     C
C      0.36829   0.1603  0.34341     C
C      0.36829  0.34341   0.1603     C
C      0.36829  0.40659   0.5897     C
C      0.36829   0.5897  0.40659     C
C      0.36829   0.6603  0.84341     C
C      0.36829  0.84341   0.6603     C
C      0.36829  0.90659   0.0897     C
C      0.37167  0.29621  0.45379     C
C      0.37167  0.45379  0.29621     C
C      0.37167  0.79621  0.95379     C
C      0.37167  0.95379  0.79621     C
O      0.37407    0.286  0.42393     O
O      0.37407  0.32607    0.464     O
O      0.37407  0.42393    0.286     O
O      0.37407    0.464  0.32607     O
O      0.37407    0.786  0.92393     O
O      0.37407  0.82607    0.964     O
O      0.37407  0.92393    0.786     O
O      0.37407    0.964  0.82607     O
Zr       0.375  0.31281    0.375    Zr
Zr       0.375    0.375  0.31281    Zr
Zr       0.375    0.375  0.43719    Zr
Zr       0.375  0.43719    0.375    Zr
Zr       0.375  0.81281    0.875    Zr
Zr       0.375    0.875  0.81281    Zr
Zr       0.375    0.875  0.93719    Zr
Zr       0.375  0.93719    0.875    Zr
O      0.37593    0.286  0.32607     O
O      0.37593  0.32607    0.286     O
O      0.37593  0.42393    0.464     O
O      0.37593    0.464  0.42393     O
O      0.37593    0.786  0.82607     O
O      0.37593  0.82607    0.786     O
O      0.37593  0.92393    0.964     O
O      0.37593    0.964  0.92393     O
C      0.37833  0.29621  0.29621     C
C      0.37833  0.45379  0.45379     C
C      0.37833  0.79621  0.79621     C
C      0.37833  0.95379  0.95379     C
C      0.38171   0.0897  0.84341     C
C      0.38171   0.1603  0.40659     C
C      0.38171  0.34341   0.5897     C
C      0.38171  0.40659   0.1603     C
C      0.38171   0.5897  0.34341     C
C      0.38171   0.6603  0.90659     C
C      0.38171  0.84341   0.0897     C
C      0.38171  0.90659   0.6603     C
C      0.38408  0.26981  0.26981     C
C      0.38408  0.48019  0.48019     C
C      0.38408  0.76981  0.76981     C
C      0.38408  0.98019  0.98019     C
H       0.3861   0.0194    0.949     H
H       0.3861   0.2306    0.301     H
H       0.3861    0.301   0.2306     H
H       0.3861    0.449   0.5194     H
H       0.3861   0.5194    0.449     H
H       0.3861   0.7306    0.801     H
H       0.3861    0.801   0.7306     H
H       0.3861    0.949   0.0194     H
C      0.38733   0.0132  0.97148     C
C      0.38733   0.2368  0.27852     C
C      0.38733  0.27852   0.2368     C
C      0.38733  0.47148   0.5132     C
C      0.38733   0.5132  0.47148     C
C      0.38733   0.7368  0.77852     C
C      0.38733  0.77852   0.7368     C
C      0.38733  0.97148   0.0132     C
H       0.3882   0.0872   0.8212     H
H       0.3882   0.1628   0.4288     H
H       0.3882   0.3212   0.5872     H
H       0.3882   0.4288   0.1628     H
H       0.3882   0.5872   0.3212     H
H       0.3882   0.6628   0.9288     H
H       0.3882   0.8212   0.0872     H
H       0.3882   0.9288   0.6628     H
C      0.39246  0.03729  0.99561     C
C      0.39246  0.21271  0.25439     C
C      0.39246  0.25439  0.21271     C
C      0.39246  0.49561  0.53729     C
C      0.39246  0.53729  0.49561     C
C      0.39246  0.71271  0.75439     C
C      0.39246  0.75439  0.71271     C
C      0.39246  0.99561  0.03729     C
H       0.3939   0.0597   0.9894     H
H       0.3939   0.1903   0.2606     H
H       0.3939   0.2606   0.1903     H
H       0.3939   0.4894   0.5597     H
H       0.3939   0.5597   0.4894     H
H       0.3939   0.6903   0.7606     H
H       0.3939   0.7606   0.6903     H
H       0.3939   0.9894   0.0597     H
C      0.39548  0.02866  0.02866     C
C      0.39548  0.22134  0.22134     C
C      0.39548  0.52866  0.52866     C
C      0.39548  0.72134  0.72134     C
C      0.39988  0.09296  0.89988     C
C      0.39988  0.15704  0.35012     C
C      0.39988  0.35012  0.15704     C
C      0.39988  0.39988  0.59296     C
C      0.39988  0.59296  0.39988     C
C      0.39988  0.65704  0.85012     C
C      0.39988  0.85012  0.65704     C
C      0.39988  0.89988  0.09296     C
C      0.40064  0.05424  0.05424     C
C      0.40064  0.19576  0.19576     C
C      0.40064  0.55424  0.55424     C
C      0.40064  0.69576  0.69576     C
O      0.40265  0.34735  0.34735     O
O      0.40265  0.40265  0.40265     O
O      0.40265  0.84735  0.84735     O
O      0.40265  0.90265  0.90265     O
C      0.40525  0.07475  0.07475     C
C      0.40525  0.17525  0.17525     C
C      0.40525  0.57475  0.57475     C
C      0.40525  0.67525  0.67525     C
C      0.40659   0.0897  0.86829     C
C      0.40659   0.1603  0.38171     C
C      0.40659  0.36829   0.5897     C
C      0.40659  0.38171   0.1603     C
C      0.40659   0.5897  0.36829     C
C      0.40659   0.6603  0.88171     C
C      0.40659  0.86829   0.0897     C
C      0.40659  0.88171   0.6603     C
C      0.40704  0.10012  0.10012     C
C      0.40704  0.14988  0.14988     C
C      0.40704  0.60012  0.60012     C
C      0.40704  0.64988  0.64988     C
O      0.40864  0.34136  0.40864     O
O      0.40864  0.40864  0.34136     O
O      0.40864  0.84136  0.90864     O
O      0.40864  0.90864  0.84136     O
C       0.4103  0.09341  0.13171     C
C       0.4103  0.11829  0.15659     C
C       0.4103  0.13171  0.09341     C
C       0.4103  0.15659  0.11829     C
C       0.4103  0.59341  0.63171     C
C       0.4103  0.61829  0.65659     C
C       0.4103  0.63171  0.59341     C
C       0.4103  0.65659  0.61829     C
H       0.4128   0.0712   0.1382     H
H       0.4128   0.1118   0.1788     H
H       0.4128   0.1382   0.0712     H
H       0.4128   0.1788   0.1118     H
H       0.4128   0.5712   0.6382     H
H       0.4128   0.6118   0.6788     H
H       0.4128   0.6382   0.5712     H
H       0.4128   0.6788   0.6118     H
O      0.42393    0.286  0.37407     O
O      0.42393  0.37407    0.286     O
O      0.42393  0.37593    0.464     O
O      0.42393    0.464  0.37593     O
O      0.42393    0.786  0.87407     O
O      0.42393  0.87407    0.786     O
O      0.42393  0.87593    0.964     O
O      0.42393    0.964  0.87593     O
C      0.42525  0.09475  0.92525     C
C      0.42525  0.15525  0.32475     C
C      0.42525  0.32475  0.15525     C
C      0.42525  0.42525  0.59475     C
C      0.42525  0.59475  0.42525     C
C      0.42525  0.65525  0.82475     C
C      0.42525  0.82475  0.65525     C
C      0.42525  0.92525  0.09475     C
H       0.4288   0.0872   0.8618     H
H       0.4288   0.1628   0.3882     H
H       0.4288   0.3618   0.5872     H
H       0.4288   0.3882   0.1628     H
H       0.4288   0.5872   0.3618     H
H       0.4288   0.6628   0.8882     H
H       0.4288   0.8618   0.0872     H
H       0.4288   0.8882   0.6628     H
Zr     0.43719    0.375    0.375    Zr
Zr     0.43719    0.875    0.875    Zr
H       0.4403   0.0106   0.1061     H
H       0.4403   0.1061   0.0106     H
H       0.4403   0.1439   0.2394     H
H       0.4403   0.2394   0.1439     H
H       0.4403   0.5106   0.6061     H
H       0.4403   0.6061   0.5106     H
H       0.4403   0.6439   0.7394     H
H       0.4403   0.7394   0.6439     H
C      0.44576  0.09936  0.94576     C
C      0.44576  0.15064  0.30424     C
C      0.44576  0.30424  0.15064     C
C      0.44576  0.44576  0.59936     C
C      0.44576  0.59936  0.44576     C
C      0.44576  0.65064  0.80424     C
C      0.44576  0.80424  0.65064     C
C      0.44576  0.94576  0.09936     C
H        0.449   0.0194   0.8861     H
H        0.449   0.2306   0.3639     H
H        0.449   0.3639   0.2306     H
H        0.449   0.3861   0.5194     H
H        0.449   0.5194   0.3861     H
H        0.449   0.7306   0.8639     H
H        0.449   0.8639   0.7306     H
H        0.449   0.8861   0.0194     H
C      0.45379  0.29621  0.37167     C
C      0.45379  0.37167  0.29621     C
C      0.45379  0.37833  0.45379     C
C      0.45379  0.45379  0.37833     C
C      0.45379  0.79621  0.87167     C
C      0.45379  0.87167  0.79621     C
C      0.45379  0.87833  0.95379     C
C      0.45379  0.95379  0.87833     C
C      0.46271  0.00439  0.10754     C
C      0.46271  0.10754  0.00439     C
C      0.46271  0.14246  0.24561     C
C      0.46271  0.24561  0.14246     C
C      0.46271  0.50439  0.60754     C
C      0.46271  0.60754  0.50439     C
C      0.46271  0.64246  0.74561     C
C      0.46271  0.74561  0.64246     C
O        0.464  0.32607  0.37407     O
O        0.464  0.37407  0.32607     O
O        0.464  0.37593  0.42393     O
O        0.464  0.42393  0.37593     O
O        0.464  0.82607  0.87407     O
O        0.464  0.87407  0.82607     O
O        0.464  0.87593  0.92393     O
O        0.464  0.92393  0.87593     O
C      0.47134  0.10452  0.97134     C
C      0.47134  0.14548  0.27866     C
C      0.47134  0.27866  0.14548     C
C      0.47134  0.47134  0.60452     C
C      0.47134  0.60452  0.47134     C
C      0.47134  0.64548  0.77866     C
C      0.47134  0.77866  0.64548     C
C      0.47134  0.97134  0.10452     C
C      0.47148   0.0132  0.88733     C
C      0.47148   0.2368  0.36267     C
C      0.47148  0.36267   0.2368     C
C      0.47148  0.38733   0.5132     C
C      0.47148   0.5132  0.38733     C
C      0.47148   0.7368  0.86267     C
C      0.47148  0.86267   0.7368     C
C      0.47148  0.88733   0.0132     C
C      0.48019  0.26981  0.36592     C
C      0.48019  0.36592  0.26981     C
C      0.48019  0.38408  0.48019     C
C      0.48019  0.48019  0.38408     C
C      0.48019  0.76981  0.86592     C
C      0.48019  0.86592  0.76981     C
C      0.48019  0.88408  0.98019     C
C      0.48019  0.98019  0.88408     C
H       0.4806    0.051   0.1139     H
H       0.4806   0.1139    0.051     H
H       0.4806   0.1361    0.199     H
H       0.4806    0.199   0.1361     H
H       0.4806    0.551   0.6139     H
H       0.4806   0.6139    0.551     H
H       0.4806   0.6361    0.699     H
H       0.4806    0.699   0.6361     H
C       0.4868  0.02852  0.11267     C
C       0.4868  0.11267  0.02852     C
C       0.4868  0.13733  0.22148     C
C       0.4868  0.22148  0.13733     C
C       0.4868  0.52852  0.61267     C
C       0.4868  0.61267  0.52852     C
C       0.4868  0.63733  0.72148     C
C       0.4868  0.72148  0.63733     C
H       0.4894   0.0597   0.8939     H
H       0.4894   0.1903   0.3561     H
H       0.4894   0.3561   0.1903     H
H       0.4894   0.3939   0.5597     H
H       0.4894   0.5597   0.3939     H
H       0.4894   0.6903   0.8561     H
H       0.4894   0.8561   0.6903     H
H       0.4894   0.8939   0.0597     H
C      0.49561  0.03729  0.89246     C
C      0.49561  0.21271  0.35754     C
C      0.49561  0.35754  0.21271     C
C      0.49561  0.39246  0.53729     C
C      0.49561  0.53729  0.39246     C
C      0.49561  0.71271  0.85754     C
C      0.49561  0.85754  0.71271     C
C      0.49561  0.89246  0.03729     C
C      0.50439  0.10754  0.96271     C
C      0.50439  0.14246  0.28729     C
C      0.50439  0.28729  0.14246     C
C      0.50439  0.46271  0.60754     C
C      0.50439  0.60754  0.46271     C
C      0.50439  0.64246  0.78729     C
C      0.50439  0.78729  0.64246     C
C      0.50439  0.96271  0.10754     C
H       0.5106   0.1061   0.9403     H
H       0.5106   0.1439   0.3097     H
H       0.5106   0.3097   0.1439     H
H       0.5106   0.4403   0.6061     H
H       0.5106   0.6061   0.4403     H
H       0.5106   0.6439   0.8097     H
H       0.5106   0.8097   0.6439     H
H       0.5106   0.9403   0.1061     H
C       0.5132  0.27852  0.36267     C
C       0.5132  0.36267  0.27852     C
C       0.5132  0.38733  0.47148     C
C       0.5132  0.47148  0.38733     C
C       0.5132  0.77852  0.86267     C
C       0.5132  0.86267  0.77852     C
C       0.5132  0.88733  0.97148     C
C       0.5132  0.97148  0.88733     C
H       0.5194    0.301   0.3639     H
H       0.5194   0.3639    0.301     H
H       0.5194   0.3861    0.449     H
H       0.5194    0.449   0.3861     H
H       0.5194    0.801   0.8639     H
H       0.5194   0.8639    0.801     H
H       0.5194   0.8861    0.949     H
H       0.5194    0.949   0.8861     H
C      0.51981  0.01981  0.11592     C
C      0.51981  0.11592  0.01981     C
C      0.51981  0.13408  0.23019     C
C      0.51981  0.23019  0.13408     C
C      0.51981  0.51981  0.61592     C
C      0.51981  0.61592  0.51981     C
C      0.51981  0.63408  0.73019     C
C      0.51981  0.73019  0.63408     C
C      0.52852  0.11267   0.9868     C
C      0.52852  0.13733   0.2632     C
C      0.52852   0.2632  0.13733     C
C      0.52852   0.4868  0.61267     C
C      0.52852  0.61267   0.4868     C
C      0.52852  0.63733   0.7632     C
C      0.52852   0.7632  0.63733     C
C      0.52852   0.9868  0.11267     C
C      0.52866  0.02866  0.89548     C
C      0.52866  0.22134  0.35452     C
C      0.52866  0.35452  0.22134     C
C      0.52866  0.39548  0.52866     C
C      0.52866  0.52866  0.39548     C
C      0.52866  0.72134  0.85452     C
C      0.52866  0.85452  0.72134     C
C      0.52866  0.89548  0.02866     C
O        0.536  0.07607  0.12407     O
O        0.536  0.12407  0.07607     O
O        0.536  0.12593  0.17393     O
O        0.536  0.17393  0.12593     O
O        0.536  0.57607  0.62407     O
O        0.536  0.62407  0.57607     O
O        0.536  0.62593  0.67393     O
O        0.536  0.67393  0.62593     O
C      0.53729  0.25439  0.35754     C
C      0.53729  0.35754  0.25439     C
C      0.53729  0.39246  0.49561     C
C      0.53729  0.49561  0.39246     C
C      0.53729  0.75439  0.85754     C
C      0.53729  0.85754  0.75439     C
C      0.53729  0.89246  0.99561     C
C      0.53729  0.99561  0.89246     C
C      0.54621  0.04621  0.12167     C
C      0.54621  0.12167  0.04621     C
C      0.54621  0.12833  0.20379     C
C      0.54621  0.20379  0.12833     C
C      0.54621  0.54621  0.62167     C
C      0.54621  0.62167  0.54621     C
C      0.54621  0.62833  0.70379     C
C      0.54621  0.70379  0.62833     C
H        0.551   0.1139   0.9806     H
H        0.551   0.1361   0.2694     H
H        0.551   0.2694   0.1361     H
H        0.551   0.4806   0.6139     H
H        0.551   0.6139   0.4806     H
H        0.551   0.6361   0.7694     H
H        0.551   0.7694   0.6361     H
H        0.551   0.9806   0.1139     H
C      0.55424  0.05424  0.90064     C
C      0.55424  0.19576  0.34936     C
C      0.55424  0.34936  0.19576     C
C      0.55424  0.40064  0.55424     C
C      0.55424  0.55424  0.40064     C
C      0.55424  0.69576  0.84936     C
C      0.55424  0.84936  0.69576     C
C      0.55424  0.90064  0.05424     C
H       0.5597   0.2606   0.3561     H
H       0.5597   0.3561   0.2606     H
H       0.5597   0.3939   0.4894     H
H       0.5597   0.4894   0.3939     H
H       0.5597   0.7606   0.8561     H
H       0.5597   0.8561   0.7606     H
H       0.5597   0.8939   0.9894     H
H       0.5597   0.9894   0.8939     H
Zr     0.56281    0.125    0.125    Zr
Zr     0.56281    0.625    0.625    Zr
H       0.5712   0.1118   0.3372     H
H       0.5712   0.1382   0.9128     H
H       0.5712   0.3372   0.1118     H
H       0.5712   0.4128   0.6382     H
H       0.5712   0.6118   0.8372     H
H       0.5712   0.6382   0.4128     H
H       0.5712   0.8372   0.6118     H
H       0.5712   0.9128   0.1382     H
C      0.57475  0.07475  0.90525     C
C      0.57475  0.17525  0.34475     C
C      0.57475  0.34475  0.17525     C
C      0.57475  0.40525  0.57475     C
C      0.57475  0.57475  0.40525     C
C      0.57475  0.67525  0.84475     C
C      0.57475  0.84475  0.67525     C
C      0.57475  0.90525  0.07475     C
O      0.57607    0.036  0.12407     O
O      0.57607  0.12407    0.036     O
O      0.57607  0.12593    0.214     O
O      0.57607    0.214  0.12593     O
O      0.57607    0.536  0.62407     O
O      0.57607  0.62407    0.536     O
O      0.57607  0.62593    0.714     O
O      0.57607    0.714  0.62593     O
H       0.5872   0.3212   0.3882     H
H       0.5872   0.3618   0.4288     H
H       0.5872   0.3882   0.3212     H
H       0.5872   0.4288   0.3618     H
H       0.5872   0.8212   0.8882     H
H       0.5872   0.8618   0.9288     H
H       0.5872   0.8882   0.8212     H
H       0.5872   0.9288   0.8618     H
C       0.5897  0.34341  0.38171     C
C       0.5897  0.36829  0.40659     C
C       0.5897  0.38171  0.34341     C
C       0.5897  0.40659  0.36829     C
C       0.5897  0.84341  0.88171     C
C       0.5897  0.86829  0.90659     C
C       0.5897  0.88171  0.84341     C
C       0.5897  0.90659  0.86829     C
O      0.59136  0.09136  0.15864     O
O      0.59136  0.15864  0.09136     O
O      0.59136  0.59136  0.65864     O
O      0.59136  0.65864  0.59136     O
C      0.59296  0.35012  0.35012     C
C      0.59296  0.39988  0.39988     C
C      0.59296  0.85012  0.85012     C
C      0.59296  0.89988  0.89988     C
C      0.59341  0.11829   0.3397     C
C      0.59341  0.13171   0.9103     C
C      0.59341   0.3397  0.11829     C
C      0.59341   0.4103  0.63171     C
C      0.59341  0.61829   0.8397     C
C      0.59341  0.63171   0.4103     C
C      0.59341   0.8397  0.61829     C
C      0.59341   0.9103  0.13171     C
C      0.59475  0.32475  0.32475     C
C      0.59475  0.42525  0.42525     C
C      0.59475  0.82475  0.82475     C
C      0.59475  0.92525  0.92525     C
O      0.59735  0.09735  0.09735     O
O      0.59735  0.15265  0.15265     O
O      0.59735  0.59735  0.59735     O
O      0.59735  0.65265  0.65265     O
C      0.59936  0.30424  0.30424     C
C      0.59936  0.44576  0.44576     C
C      0.59936  0.80424  0.80424     C
C      0.59936  0.94576  0.94576     C
C      0.60012  0.10012  0.90704     C
C      0.60012  0.14988  0.34296     C
C      0.60012  0.34296  0.14988     C
C      0.60012  0.40704  0.60012     C
C      0.60012  0.60012  0.40704     C
C      0.60012  0.64988  0.84296     C
C      0.60012  0.84296  0.64988     C
C      0.60012  0.90704  0.10012     C
C      0.60452  0.27866  0.27866     C
C      0.60452  0.47134  0.47134     C
C      0.60452  0.77866  0.77866     C
C      0.60452  0.97134  0.97134     C
H       0.6061   0.0106   0.9403     H
H       0.6061   0.2394   0.3097     H
H       0.6061   0.3097   0.2394     H
H       0.6061   0.4403   0.5106     H
H       0.6061   0.5106   0.4403     H
H       0.6061   0.7394   0.8097     H
H       0.6061   0.8097   0.7394     H
H       0.6061   0.9403   0.0106     H
C      0.60754  0.00439  0.96271     C
C      0.60754  0.24561  0.28729     C
C      0.60754  0.28729  0.24561     C
C      0.60754  0.46271  0.50439     C
C      0.60754  0.50439  0.46271     C
C      0.60754  0.74561  0.78729     C
C      0.60754  0.78729  0.74561     C
C      0.60754  0.96271  0.00439     C
H       0.6118   0.0712   0.3372     H
H       0.6118   0.1788   0.9128     H
H       0.6118   0.3372   0.0712     H
H       0.6118   0.4128   0.6788     H
H       0.6118   0.5712   0.8372     H
H       0.6118   0.6788   0.4128     H
H       0.6118   0.8372   0.5712     H
H       0.6118   0.9128   0.1788     H
C      0.61267  0.02852   0.9868     C
C      0.61267  0.22148   0.2632     C
C      0.61267   0.2632  0.22148     C
C      0.61267   0.4868  0.52852     C
C      0.61267  0.52852   0.4868     C
C      0.61267  0.72148   0.7632     C
C      0.61267   0.7632  0.72148     C
C      0.61267   0.9868  0.02852     C
H       0.6139    0.051   0.9806     H
H       0.6139    0.199   0.2694     H
H       0.6139   0.2694    0.199     H
H       0.6139   0.4806    0.551     H
H       0.6139    0.551   0.4806     H
H       0.6139    0.699   0.7694     H
H       0.6139   0.7694    0.699     H
H       0.6139   0.9806    0.051     H
C      0.61592  0.01981  0.01981     C
C      0.61592  0.23019  0.23019     C
C      0.61592  0.51981  0.51981     C
C      0.61592  0.73019  0.73019     C
C      0.61829  0.09341   0.3397     C
C      0.61829  0.15659   0.9103     C
C      0.61829   0.3397  0.09341     C
C      0.61829   0.4103  0.65659     C
C      0.61829  0.59341   0.8397     C
C      0.61829  0.65659   0.4103     C
C      0.61829   0.8397  0.59341     C
C      0.61829   0.9103  0.15659     C
C      0.62167  0.04621  0.04621     C
C      0.62167  0.20379  0.20379     C
C      0.62167  0.54621  0.54621     C
C      0.62167  0.70379  0.70379     C
O      0.62407    0.036  0.07607     O
O      0.62407  0.07607    0.036     O
O      0.62407  0.17393    0.214     O
O      0.62407    0.214  0.17393     O
O      0.62407    0.536  0.57607     O
O      0.62407  0.57607    0.536     O
O      0.62407  0.67393    0.714     O
O      0.62407    0.714  0.67393     O
Zr       0.625  0.06281    0.125    Zr
Zr       0.625    0.125  0.06281    Zr
Zr       0.625    0.125  0.18719    Zr
Zr       0.625  0.18719    0.125    Zr
Zr       0.625  0.56281    0.625    Zr
Zr       0.625    0.625  0.56281    Zr
Zr       0.625    0.625  0.68719    Zr
Zr       0.625  0.68719    0.625    Zr
O      0.62593    0.036  0.17393     O
O      0.62593  0.07607    0.214     O
O      0.62593  0.17393    0.036     O
O      0.62593    0.214  0.07607     O
O      0.62593    0.536  0.67393     O
O      0.62593  0.57607    0.714     O
O      0.62593  0.67393    0.536     O
O      0.62593    0.714  0.57607     O
C      0.62833  0.04621  0.20379     C
C      0.62833  0.20379  0.04621     C
C      0.62833  0.54621  0.70379     C
C      0.62833  0.70379  0.54621     C
C      0.63171  0.09341   0.9103     C
C      0.63171  0.15659   0.3397     C
C      0.63171   0.3397  0.15659     C
C      0.63171   0.4103  0.59341     C
C      0.63171  0.59341   0.4103     C
C      0.63171  0.65659   0.8397     C
C      0.63171   0.8397  0.65659     C
C      0.63171   0.9103  0.09341     C
C      0.63408  0.01981  0.23019     C
C      0.63408  0.23019  0.01981     C
C      0.63408  0.51981  0.73019     C
C      0.63408  0.73019  0.51981     C
H       0.6361    0.051   0.2694     H
H       0.6361    0.199   0.9806     H
H       0.6361   0.2694    0.051     H
H       0.6361   0.4806    0.699     H
H       0.6361    0.551   0.7694     H
H       0.6361    0.699   0.4806     H
H       0.6361   0.7694    0.551     H
H       0.6361   0.9806    0.199     H
C      0.63733  0.02852   0.2632     C
C      0.63733  0.22148   0.9868     C
C      0.63733   0.2632  0.02852     C
C      0.63733   0.4868  0.72148     C
C      0.63733  0.52852   0.7632     C
C      0.63733  0.72148   0.4868     C
C      0.63733   0.7632  0.52852     C
C      0.63733   0.9868  0.22148     C
H       0.6382   0.0712   0.9128     H
H       0.6382   0.1788   0.3372     H
H       0.6382   0.3372   0.1788     H
H       0.6382   0.4128   0.5712     H
H       0.6382   0.5712   0.4128     H
H       0.6382   0.6788   0.8372     H
H       0.6382   0.8372   0.6788     H
H       0.6382   0.9128   0.0712     H
C      0.64246  0.00439  0.28729     C
C      0.64246  0.24561  0.96271     C
C      0.64246  0.28729  0.00439     C
C      0.64246  0.46271  0.74561     C
C      0.64246  0.50439  0.78729     C
C      0.64246  0.74561  0.46271     C
C      0.64246  0.78729  0.50439     C
C      0.64246  0.96271  0.24561     C
H       0.6439   0.0106   0.3097     H
H       0.6439   0.2394   0.9403     H
H       0.6439   0.3097   0.0106     H
H       0.6439   0.4403   0.7394     H
H       0.6439   0.5106   0.8097     H
H       0.6439   0.7394   0.4403     H
H       0.6439   0.8097   0.5106     H
H       0.6439   0.9403   0.2394     H
C      0.64548  0.27866  0.97134     C
C      0.64548  0.47134  0.77866     C
C      0.64548  0.77866  0.47134     C
C      0.64548  0.97134  0.27866     C
C      0.64988  0.10012  0.34296     C
C      0.64988  0.14988  0.90704     C
C      0.64988  0.34296  0.10012     C
C      0.64988  0.40704  0.64988     C
C      0.64988  0.60012  0.84296     C
C      0.64988  0.64988  0.40704     C
C      0.64988  0.84296  0.60012     C
C      0.64988  0.90704  0.14988     C
C      0.65064  0.30424  0.94576     C
C      0.65064  0.44576  0.80424     C
C      0.65064  0.80424  0.44576     C
C      0.65064  0.94576  0.30424     C
O      0.65265  0.09735  0.15265     O
O      0.65265  0.15265  0.09735     O
O      0.65265  0.59735  0.65265     O
O      0.65265  0.65265  0.59735     O
C      0.65525  0.32475  0.92525     C
C      0.65525  0.42525  0.82475     C
C      0.65525  0.82475  0.42525     C
C      0.65525  0.92525  0.32475     C
C      0.65659  0.11829   0.9103     C
C      0.65659  0.13171   0.3397     C
C      0.65659   0.3397  0.13171     C
C      0.65659   0.4103  0.61829     C
C      0.65659  0.61829   0.4103     C
C      0.65659  0.63171   0.8397     C
C      0.65659   0.8397  0.63171     C
C      0.65659   0.9103  0.11829     C
C      0.65704  0.35012  0.89988     C
C      0.65704  0.39988  0.85012     C
C      0.65704  0.85012  0.39988     C
C      0.65704  0.89988  0.35012     C
O      0.65864  0.09136  0.09136     O
O      0.65864  0.15864  0.15864     O
O      0.65864  0.59136  0.59136     O
O      0.65864  0.65864  0.65864     O
C       0.6603  0.34341  0.86829     C
C       0.6603  0.36829  0.84341     C
C       0.6603  0.38171  0.90659     C
C       0.6603  0.40659  0.88171     C
C       0.6603  0.84341  0.36829     C
C       0.6603  0.86829  0.34341     C
C       0.6603  0.88171  0.40659     C
C       0.6603  0.90659  0.38171     C
H       0.6628   0.3212   0.8618     H
H       0.6628   0.3618   0.8212     H
H       0.6628   0.3882   0.9288     H
H       0.6628   0.4288   0.8882     H
H       0.6628   0.8212   0.3618     H
H       0.6628   0.8618   0.3212     H
H       0.6628   0.8882   0.4288     H
H       0.6628   0.9288   0.3882     H
O      0.67393    0.036  0.12593     O
O      0.67393  0.12407    0.214     O
O      0.67393  0.12593    0.036     O
O      0.67393    0.214  0.12407     O
O      0.67393    0.536  0.62593     O
O      0.67393  0.62407    0.714     O
O      0.67393  0.62593    0.536     O
O      0.67393    0.714  0.62407     O
C      0.67525  0.07475  0.34475     C
C      0.67525  0.17525  0.90525     C
C      0.67525  0.34475  0.07475     C
C      0.67525  0.40525  0.67525     C
C      0.67525  0.57475  0.84475     C
C      0.67525  0.67525  0.40525     C
C      0.67525  0.84475  0.57475     C
C      0.67525  0.90525  0.17525     C
H       0.6788   0.1118   0.9128     H
H       0.6788   0.1382   0.3372     H
H       0.6788   0.3372   0.1382     H
H       0.6788   0.4128   0.6118     H
H       0.6788   0.6118   0.4128     H
H       0.6788   0.6382   0.8372     H
H       0.6788   0.8372   0.6382     H
H       0.6788   0.9128   0.1118     H
Zr     0.68719    0.125    0.125    Zr
Zr     0.68719    0.625    0.625    Zr
H       0.6903   0.2606   0.8939     H
H       0.6903   0.3561   0.9894     H
H       0.6903   0.3939   0.7606     H
H       0.6903   0.4894   0.8561     H
H       0.6903   0.7606   0.3939     H
H       0.6903   0.8561   0.4894     H
H       0.6903   0.8939   0.2606     H
H       0.6903   0.9894   0.3561     H
C      0.69576  0.05424  0.34936     C
C      0.69576  0.19576  0.90064     C
C      0.69576  0.34936  0.05424     C
C      0.69576  0.40064  0.69576     C
C      0.69576  0.55424  0.84936     C
C      0.69576  0.69576  0.40064     C
C      0.69576  0.84936  0.55424     C
C      0.69576  0.90064  0.19576     C
H        0.699   0.1139   0.2694     H
H        0.699   0.1361   0.9806     H
H        0.699   0.2694   0.1139     H
H        0.699   0.4806   0.6361     H
H        0.699   0.6139   0.7694     H
H        0.699   0.6361   0.4806     H
H        0.699   0.7694   0.6139     H
H        0.699   0.9806   0.1361     H
C      0.70379  0.04621  0.12833     C
C      0.70379  0.12167  0.20379     C
C      0.70379  0.12833  0.04621     C
C      0.70379  0.20379  0.12167     C
C      0.70379  0.54621  0.62833     C
C      0.70379  0.62167  0.70379     C
C      0.70379  0.62833  0.54621     C
C      0.70379  0.70379  0.62167     C
C      0.71271  0.25439  0.89246     C
C      0.71271  0.35754  0.99561     C
C      0.71271  0.39246  0.75439     C
C      0.71271  0.49561  0.85754     C
C      0.71271  0.75439  0.39246     C
C      0.71271  0.85754  0.49561     C
C      0.71271  0.89246  0.25439     C
C      0.71271  0.99561  0.35754     C
O        0.714  0.07607  0.12593     O
O        0.714  0.12407  0.17393     O
O        0.714  0.12593  0.07607     O
O        0.714  0.17393  0.12407     O
O        0.714  0.57607  0.62593     O
O        0.714  0.62407  0.67393     O
O        0.714  0.62593  0.57607     O
O        0.714  0.67393  0.62407     O
C      0.72134  0.02866  0.35452     C
C      0.72134  0.22134  0.89548     C
C      0.72134  0.35452  0.02866     C
C      0.72134  0.39548  0.72134     C
C      0.72134  0.52866  0.85452     C
C      0.72134  0.72134  0.39548     C
C      0.72134  0.85452  0.52866     C
C      0.72134  0.89548  0.22134     C
C      0.72148  0.11267   0.2632     C
C      0.72148  0.13733   0.9868     C
C      0.72148   0.2632  0.11267     C
C      0.72148   0.4868  0.63733     C
C      0.72148  0.61267   0.7632     C
C      0.72148  0.63733   0.4868     C
C      0.72148   0.7632  0.61267     C
C      0.72148   0.9868  0.13733     C
C      0.73019  0.01981  0.13408     C
C      0.73019  0.11592  0.23019     C
C      0.73019  0.13408  0.01981     C
C      0.73019  0.23019  0.11592     C
C      0.73019  0.51981  0.63408     C
C      0.73019  0.61592  0.73019     C
C      0.73019  0.63408  0.51981     C
C      0.73019  0.73019  0.61592     C
H       0.7306    0.301   0.8861     H
H       0.7306   0.3639    0.949     H
H       0.7306   0.3861    0.801     H
H       0.7306    0.449   0.8639     H
H       0.7306    0.801   0.3861     H
H       0.7306   0.8639    0.449     H
H       0.7306   0.8861    0.301     H
H       0.7306    0.949   0.3639     H
C       0.7368  0.27852  0.88733     C
C       0.7368  0.36267  0.97148     C
C       0.7368  0.38733  0.77852     C
C       0.7368  0.47148  0.86267     C
C       0.7368  0.77852  0.38733     C
C       0.7368  0.86267  0.47148     C
C       0.7368  0.88733  0.27852     C
C       0.7368  0.97148  0.36267     C
H       0.7394   0.1061   0.3097     H
H       0.7394   0.1439   0.9403     H
H       0.7394   0.3097   0.1061     H
H       0.7394   0.4403   0.6439     H
H       0.7394   0.6061   0.8097     H
H       0.7394   0.6439   0.4403     H
H       0.7394   0.8097   0.6061     H
H       0.7394   0.9403   0.1439     H
C      0.74561  0.10754  0.28729     C
C      0.74561  0.14246  0.96271     C
C      0.74561  0.28729  0.10754     C
C      0.74561  0.46271  0.64246     C
C      0.74561  0.60754  0.78729     C
C      0.74561  0.64246  0.46271     C
C      0.74561  0.78729  0.60754     C
C      0.74561  0.96271  0.14246     C
C      0.75439  0.03729  0.35754     C
C      0.75439  0.21271  0.89246     C
C      0.75439  0.35754  0.03729     C
C      0.75439  0.39246  0.71271     C
C      0.75439  0.53729  0.85754     C
C      0.75439  0.71271  0.39246     C
C      0.75439  0.85754  0.53729     C
C      0.75439  0.89246  0.21271     C
H       0.7606   0.0597   0.3561     H
H       0.7606   0.1903   0.8939     H
H       0.7606   0.3561   0.0597     H
H       0.7606   0.3939   0.6903     H
H       0.7606   0.5597   0.8561     H
H       0.7606   0.6903   0.3939     H
H       0.7606   0.8561   0.5597     H
H       0.7606   0.8939   0.1903     H
C       0.7632  0.02852  0.13733     C
C       0.7632  0.11267  0.22148     C
C       0.7632  0.13733  0.02852     C
C       0.7632  0.22148  0.11267     C
C       0.7632  0.52852  0.63733     C
C       0.7632  0.61267  0.72148     C
C       0.7632  0.63733  0.52852     C
C       0.7632  0.72148  0.61267     C
H       0.7694    0.051   0.1361     H
H       0.7694   0.1139    0.199     H
H       0.7694   0.1361    0.051     H
H       0.7694    0.199   0.1139     H
H       0.7694    0.551   0.6361     H
H       0.7694   0.6139    0.699     H
H       0.7694   0.6361    0.551     H
H       0.7694    0.699   0.6139     H
C      0.76981  0.26981  0.88408     C
C      0.76981  0.36592  0.98019     C
C      0.76981  0.38408  0.76981     C
C      0.76981  0.48019  0.86592     C
C      0.76981  0.76981  0.38408     C
C      0.76981  0.86592  0.48019     C
C      0.76981  0.88408  0.26981     C
C      0.76981  0.98019  0.36592     C
C      0.77852   0.0132  0.36267     C
C      0.77852   0.2368  0.88733     C
C      0.77852  0.36267   0.0132     C
C      0.77852  0.38733   0.7368     C
C      0.77852   0.5132  0.86267     C
C      0.77852   0.7368  0.38733     C
C      0.77852  0.86267   0.5132     C
C      0.77852  0.88733   0.2368     C
C      0.77866  0.10452  0.27866     C
C      0.77866  0.14548  0.97134     C
C      0.77866  0.27866  0.10452     C
C      0.77866  0.47134  0.64548     C
C      0.77866  0.60452  0.77866     C
C      0.77866  0.64548  0.47134     C
C      0.77866  0.77866  0.60452     C
C      0.77866  0.97134  0.14548     C
O        0.786  0.32607  0.87593     O
O        0.786  0.37407  0.92393     O
O        0.786  0.37593  0.82607     O
O        0.786  0.42393  0.87407     O
O        0.786  0.82607  0.37593     O
O        0.786  0.87407  0.42393     O
O        0.786  0.87593  0.32607     O
O        0.786  0.92393  0.37407     O
C      0.78729  0.00439  0.14246     C
C      0.78729  0.10754  0.24561     C
C      0.78729  0.14246  0.00439     C
C      0.78729  0.24561  0.10754     C
C      0.78729  0.50439  0.64246     C
C      0.78729  0.60754  0.74561     C
C      0.78729  0.64246  0.50439     C
C      0.78729  0.74561  0.60754     C
C      0.79621  0.29621  0.87833     C
C      0.79621  0.37167  0.95379     C
C      0.79621  0.37833  0.79621     C
C      0.79621  0.45379  0.87167     C
C      0.79621  0.79621  0.37833     C
C      0.79621  0.87167  0.45379     C
C      0.79621  0.87833  0.29621     C
C      0.79621  0.95379  0.37167     C
H        0.801   0.0194   0.3639     H
H        0.801   0.2306   0.8861     H
H        0.801   0.3639   0.0194     H
H        0.801   0.3861   0.7306     H
H        0.801   0.5194   0.8639     H
H        0.801   0.7306   0.3861     H
H        0.801   0.8639   0.5194     H
H        0.801   0.8861   0.2306     H
C      0.80424  0.09936  0.30424     C
C      0.80424  0.15064  0.94576     C
C      0.80424  0.30424  0.09936     C
C      0.80424  0.44576  0.65064     C
C      0.80424  0.59936  0.80424     C
C      0.80424  0.65064  0.44576     C
C      0.80424  0.80424  0.59936     C
C      0.80424  0.94576  0.15064     C
H       0.8097   0.0106   0.1439     H
H       0.8097   0.1061   0.2394     H
H       0.8097   0.1439   0.0106     H
H       0.8097   0.2394   0.1061     H
H       0.8097   0.5106   0.6439     H
H       0.8097   0.6061   0.7394     H
H       0.8097   0.6439   0.5106     H
H       0.8097   0.7394   0.6061     H
Zr     0.81281    0.375    0.875    Zr
Zr     0.81281    0.875    0.375    Zr
H       0.8212   0.0872   0.3882     H
H       0.8212   0.1628   0.8618     H
H       0.8212   0.3618   0.6628     H
H       0.8212   0.3882   0.0872     H
H       0.8212   0.5872   0.8882     H
H       0.8212   0.6628   0.3618     H
H       0.8212   0.8618   0.1628     H
H       0.8212   0.8882   0.5872     H
C      0.82475  0.09475  0.32475     C
C      0.82475  0.15525  0.92525     C
C      0.82475  0.32475  0.09475     C
C      0.82475  0.42525  0.65525     C
C      0.82475  0.59475  0.82475     C
C      0.82475  0.65525  0.42525     C
C      0.82475  0.82475  0.59475     C
C      0.82475  0.92525  0.15525     C
O      0.82607    0.286  0.87593     O
O      0.82607  0.37407    0.964     O
O      0.82607  0.37593    0.786     O
O      0.82607    0.464  0.87407     O
O      0.82607    0.786  0.37593     O
O      0.82607  0.87407    0.464     O
O      0.82607  0.87593    0.286     O
O      0.82607    0.964  0.37407     O
H       0.8372   0.0712   0.1118     H
H       0.8372   0.1118   0.0712     H
H       0.8372   0.1382   0.1788     H
H       0.8372   0.1788   0.1382     H
H       0.8372   0.5712   0.6118     H
H       0.8372   0.6118   0.5712     H
H       0.8372   0.6382   0.6788     H
H       0.8372   0.6788   0.6382     H
C       0.8397  0.09341  0.11829     C
C       0.8397  0.11829  0.09341     C
C       0.8397  0.13171  0.15659     C
C       0.8397  0.15659  0.13171     C
C       0.8397  0.59341  0.61829     C
C       0.8397  0.61829  0.59341     C
C       0.8397  0.63171  0.65659     C
C       0.8397  0.65659  0.63171     C
O      0.84136  0.34136  0.84136     O
O      0.84136  0.40864  0.90864     O
O      0.84136  0.84136  0.34136     O
O      0.84136  0.90864  0.40864     O
C      0.84296  0.10012  0.14988     C
C      0.84296  0.14988  0.10012     C
C      0.84296  0.60012  0.64988     C
C      0.84296  0.64988  0.60012     C
C      0.84341   0.0897  0.38171     C
C      0.84341   0.1603  0.86829     C
C      0.84341  0.36829   0.6603     C
C      0.84341  0.38171   0.0897     C
C      0.84341   0.5897  0.88171     C
C      0.84341   0.6603  0.36829     C
C      0.84341  0.86829   0.1603     C
C      0.84341  0.88171   0.5897     C
C      0.84475  0.07475  0.17525     C
C      0.84475  0.17525  0.07475     C
C      0.84475  0.57475  0.67525     C
C      0.84475  0.67525  0.57475     C
O      0.84735  0.34735  0.90265     O
O      0.84735  0.40265  0.84735     O
O      0.84735  0.84735  0.40265     O
O      0.84735  0.90265  0.34735     O
C      0.84936  0.05424  0.19576     C
C      0.84936  0.19576  0.05424     C
C      0.84936  0.55424  0.69576     C
C      0.84936  0.69576  0.55424     C
C      0.85012  0.09296  0.35012     C
C      0.85012  0.15704  0.89988     C
C      0.85012  0.35012  0.09296     C
C      0.85012  0.39988  0.65704     C
C      0.85012  0.59296  0.85012     C
C      0.85012  0.65704  0.39988     C
C      0.85012  0.85012  0.59296     C
C      0.85012  0.89988  0.15704     C
C      0.85452  0.02866  0.22134     C
C      0.85452  0.22134  0.02866     C
C      0.85452  0.52866  0.72134     C
C      0.85452  0.72134  0.52866     C
H       0.8561   0.0597   0.2606     H
H       0.8561   0.1903   0.9894     H
H       0.8561   0.2606   0.0597     H
H       0.8561   0.4894   0.6903     H
H       0.8561   0.5597   0.7606     H
H       0.8561   0.6903   0.4894     H
H       0.8561   0.7606   0.5597     H
H       0.8561   0.9894   0.1903     H
C      0.85754  0.03729  0.25439     C
C      0.85754  0.21271  0.99561     C
C      0.85754  0.25439  0.03729     C
C      0.85754  0.49561  0.71271     C
C      0.85754  0.53729  0.75439     C
C      0.85754  0.71271  0.49561     C
C      0.85754  0.75439  0.53729     C
C      0.85754  0.99561  0.21271     C
H       0.8618   0.0872   0.4288     H
H       0.8618   0.1628   0.8212     H
H       0.8618   0.3212   0.6628     H
H       0.8618   0.4288   0.0872     H
H       0.8618   0.5872   0.9288     H
H       0.8618   0.6628   0.3212     H
H       0.8618   0.8212   0.1628     H
H       0.8618   0.9288   0.5872     H
C      0.86267   0.0132  0.27852     C
C      0.86267   0.2368  0.97148     C
C      0.86267  0.27852   0.0132     C
C      0.86267  0.47148   0.7368     C
C      0.86267   0.5132  0.77852     C
C      0.86267   0.7368  0.47148     C
C      0.86267  0.77852   0.5132     C
C      0.86267  0.97148   0.2368     C
H       0.8639   0.0194    0.301     H
H       0.8639   0.2306    0.949     H
H       0.8639    0.301   0.0194     H
H       0.8639    0.449   0.7306     H
H       0.8639   0.5194    0.801     H
H       0.8639   0.7306    0.449     H
H       0.8639    0.801   0.5194     H
H       0.8639    0.949   0.2306     H
C      0.86592  0.26981  0.98019     C
C      0.86592  0.48019  0.76981     C
C      0.86592  0.76981  0.48019     C
C      0.86592  0.98019  0.26981     C
C      0.86829   0.0897  0.40659     C
C      0.86829   0.1603  0.84341     C
C      0.86829  0.34341   0.6603     C
C      0.86829  0.40659   0.0897     C
C      0.86829   0.5897  0.90659     C
C      0.86829   0.6603  0.34341     C
C      0.86829  0.84341   0.1603     C
C      0.86829  0.90659   0.5897     C
C      0.87167  0.29621  0.95379     C
C      0.87167  0.45379  0.79621     C
C      0.87167  0.79621  0.45379     C
C      0.87167  0.95379  0.29621     C
O      0.87407    0.286  0.92393     O
O      0.87407  0.32607    0.964     O
O      0.87407  0.42393    0.786     O
O      0.87407    0.464  0.82607     O
O      0.87407    0.786  0.42393     O
O      0.87407  0.82607    0.464     O
O      0.87407  0.92393    0.286     O
O      0.87407    0.964  0.32607     O
Zr       0.875  0.31281    0.875    Zr
Zr       0.875    0.375  0.81281    Zr
Zr       0.875    0.375  0.93719    Zr
Zr       0.875  0.43719    0.875    Zr
Zr       0.875  0.81281    0.375    Zr
Zr       0.875    0.875  0.31281    Zr
Zr       0.875    0.875  0.43719    Zr
Zr       0.875  0.93719    0.375    Zr
O      0.87593    0.286  0.82607     O
O      0.87593  0.32607    0.786     O
O      0.87593  0.42393    0.964     O
O      0.87593    0.464  0.92393     O
O      0.87593    0.786  0.32607     O
O      0.87593  0.82607    0.286     O
O      0.87593  0.92393    0.464     O
O      0.87593    0.964  0.42393     O
C      0.87833  0.29621  0.79621     C
C      0.87833  0.45379  0.95379     C
C      0.87833  0.79621  0.29621     C
C      0.87833  0.95379  0.45379     C
C      0.88171   0.0897  0.34341     C
C      0.88171   0.1603  0.90659     C
C      0.88171  0.34341   0.0897     C
C      0.88171  0.40659   0.6603     C
C      0.88171   0.5897  0.84341     C
C      0.88171   0.6603  0.40659     C
C      0.88171  0.84341   0.5897     C
C      0.88171  0.90659   0.1603     C
C      0.88408  0.26981  0.76981     C
C      0.88408  0.48019  0.98019     C
C      0.88408  0.76981  0.26981     C
C      0.88408  0.98019  0.48019     C
H       0.8861   0.0194    0.449     H
H       0.8861   0.2306    0.801     H
H       0.8861    0.301   0.7306     H
H       0.8861    0.449   0.0194     H
H       0.8861   0.5194    0.949     H
H       0.8861   0.7306    0.301     H
H       0.8861    0.801   0.2306     H
H       0.8861    0.949   0.5194     H
C      0.88733   0.0132  0.47148     C
C      0.88733   0.2368  0.77852     C
C      0.88733  0.27852   0.7368     C
C      0.88733  0.47148   0.0132     C
C      0.88733   0.5132  0.97148     C
C      0.88733   0.7368  0.27852     C
C      0.88733  0.77852   0.2368     C
C      0.88733  0.97148   0.5132     C
H       0.8882   0.0872   0.3212     H
H       0.8882   0.1628   0.9288     H
H       0.8882   0.3212   0.0872     H
H       0.8882   0.4288   0.6628     H
H       0.8882   0.5872   0.8212     H
H       0.8882   0.6628   0.4288     H
H       0.8882   0.8212   0.5872     H
H       0.8882   0.9288   0.1628     H
C      0.89246  0.03729  0.49561     C
C      0.89246  0.21271  0.75439     C
C      0.89246  0.25439  0.71271     C
C      0.89246  0.49561  0.03729     C
C      0.89246  0.53729  0.99561     C
C      0.89246  0.71271  0.25439     C
C      0.89246  0.75439  0.21271     C
C      0.89246  0.99561  0.53729     C
H       0.8939   0.0597   0.4894     H
H       0.8939   0.1903   0.7606     H
H       0.8939   0.2606   0.6903     H
H       0.8939   0.4894   0.0597     H
H       0.8939   0.5597   0.9894     H
H       0.8939   0.6903   0.2606     H
H       0.8939   0.7606   0.1903     H
H       0.8939   0.9894   0.5597     H
C      0.89548  0.02866  0.52866     C
C      0.89548  0.22134  0.72134     C
C      0.89548  0.52866  0.02866     C
C      0.89548  0.72134  0.22134     C
C      0.89988  0.09296  0.39988     C
C      0.89988  0.15704  0.85012     C
C      0.89988  0.35012  0.65704     C
C      0.89988  0.39988  0.09296     C
C      0.89988  0.59296  0.89988     C
C      0.89988  0.65704  0.35012     C
C      0.89988  0.85012  0.15704     C
C      0.89988  0.89988  0.59296     C
C      0.90064  0.05424  0.55424     C
C      0.90064  0.19576  0.69576     C
C      0.90064  0.55424  0.05424     C
C      0.90064  0.69576  0.19576     C
O      0.90265  0.34735  0.84735     O
O      0.90265  0.40265  0.90265     O
O      0.90265  0.84735  0.34735     O
O      0.90265  0.90265  0.40265     O
C      0.90525  0.07475  0.57475     C
C      0.90525  0.17525  0.67525     C
C      0.90525  0.57475  0.07475     C
C      0.90525  0.67525  0.17525     C
C      0.90659   0.0897  0.36829     C
C      0.90659   0.1603  0.88171     C
C      0.90659  0.36829   0.0897     C
C      0.90659  0.38171   0.6603     C
C      0.90659   0.5897  0.86829     C
C      0.90659   0.6603  0.38171     C
C      0.90659  0.86829   0.5897     C
C      0.90659  0.88171   0.1603     C
C      0.90704  0.10012  0.60012     C
C      0.90704  0.14988  0.64988     C
C      0.90704  0.60012  0.10012     C
C      0.90704  0.64988  0.14988     C
O      0.90864  0.34136  0.90864     O
O      0.90864  0.40864  0.84136     O
O      0.90864  0.84136  0.40864     O
O      0.90864  0.90864  0.34136     O
C       0.9103  0.09341  0.63171     C
C       0.9103  0.11829  0.65659     C
C       0.9103  0.13171  0.59341     C
C       0.9103  0.15659  0.61829     C
C       0.9103  0.59341  0.13171     C
C       0.9103  0.61829  0.15659     C
C       0.9103  0.63171  0.09341     C
C       0.9103  0.65659  0.11829     C
H       0.9128   0.0712   0.6382     H
H       0.9128   0.1118   0.6788     H
H       0.9128   0.1382   0.5712     H
H       0.9128   0.1788   0.6118     H
H       0.9128   0.5712   0.1382     H
H       0.9128   0.6118   0.1788     H
H       0.9128   0.6382   0.0712     H
H       0.9128   0.6788   0.1118     H
O      0.92393    0.286  0.87407     O
O      0.92393  0.37407    0.786     O
O      0.92393  0.37593    0.964     O
O      0.92393    0.464  0.87593     O
O      0.92393    0.786  0.37407     O
O      0.92393  0.87407    0.286     O
O      0.92393  0.87593    0.464     O
O      0.92393    0.964  0.37593     O
C      0.92525  0.09475  0.42525     C
C      0.92525  0.15525  0.82475     C
C      0.92525  0.32475  0.65525     C
C      0.92525  0.42525  0.09475     C
C      0.92525  0.59475  0.92525     C
C      0.92525  0.65525  0.32475     C
C      0.92525  0.82475  0.15525     C
C      0.92525  0.92525  0.59475     C
H       0.9288   0.0872   0.3618     H
H       0.9288   0.1628   0.8882     H
H       0.9288   0.3618   0.0872     H
H       0.9288   0.3882   0.6628     H
H       0.9288   0.5872   0.8618     H
H       0.9288   0.6628   0.3882     H
H       0.9288   0.8618   0.5872     H
H       0.9288   0.8882   0.1628     H
Zr     0.93719    0.375    0.875    Zr
Zr     0.93719    0.875    0.375    Zr
H       0.9403   0.0106   0.6061     H
H       0.9403   0.1061   0.5106     H
H       0.9403   0.1439   0.7394     H
H       0.9403   0.2394   0.6439     H
H       0.9403   0.5106   0.1061     H
H       0.9403   0.6061   0.0106     H
H       0.9403   0.6439   0.2394     H
H       0.9403   0.7394   0.1439     H
C      0.94576  0.09936  0.44576     C
C      0.94576  0.15064  0.80424     C
C      0.94576  0.30424  0.65064     C
C      0.94576  0.44576  0.09936     C
C      0.94576  0.59936  0.94576     C
C      0.94576  0.65064  0.30424     C
C      0.94576  0.80424  0.15064     C
C      0.94576  0.94576  0.59936     C
H        0.949   0.0194   0.3861     H
H        0.949   0.2306   0.8639     H
H        0.949   0.3639   0.7306     H
H        0.949   0.3861   0.0194     H
H        0.949   0.5194   0.8861     H
H        0.949   0.7306   0.3639     H
H        0.949   0.8639   0.2306     H
H        0.949   0.8861   0.5194     H
C      0.95379  0.29621  0.87167     C
C      0.95379  0.37167  0.79621     C
C      0.95379  0.37833  0.95379     C
C      0.95379  0.45379  0.87833     C
C      0.95379  0.79621  0.37167     C
C      0.95379  0.87167  0.29621     C
C      0.95379  0.87833  0.45379     C
C      0.95379  0.95379  0.37833     C
C      0.96271  0.00439  0.60754     C
C      0.96271  0.10754  0.50439     C
C      0.96271  0.14246  0.74561     C
C      0.96271  0.24561  0.64246     C
C      0.96271  0.50439  0.10754     C
C      0.96271  0.60754  0.00439     C
C      0.96271  0.64246  0.24561     C
C      0.96271  0.74561  0.14246     C
O        0.964  0.32607  0.87407     O
O        0.964  0.37407  0.82607     O
O        0.964  0.37593  0.92393     O
O        0.964  0.42393  0.87593     O
O        0.964  0.82607  0.37407     O
O        0.964  0.87407  0.32607     O
O        0.964  0.87593  0.42393     O
O        0.964  0.92393  0.37593     O
C      0.97134  0.10452  0.47134     C
C      0.97134  0.14548  0.77866     C
C      0.97134  0.27866  0.64548     C
C      0.97134  0.47134  0.10452     C
C      0.97134  0.60452  0.97134     C
C      0.97134  0.64548  0.27866     C
C      0.97134  0.77866  0.14548     C
C      0.97134  0.97134  0.60452     C
C      0.97148   0.0132  0.38733     C
C      0.97148   0.2368  0.86267     C
C      0.97148  0.36267   0.7368     C
C      0.97148  0.38733   0.0132     C
C      0.97148   0.5132  0.88733     C
C      0.97148   0.7368  0.36267     C
C      0.97148  0.86267   0.2368     C
C      0.97148  0.88733   0.5132     C
C      0.98019  0.26981  0.86592     C
C      0.98019  0.36592  0.76981     C
C      0.98019  0.38408  0.98019     C
C      0.98019  0.48019  0.88408     C
C      0.98019  0.76981  0.36592     C
C      0.98019  0.86592  0.26981     C
C      0.98019  0.88408  0.48019     C
C      0.98019  0.98019  0.38408     C
H       0.9806    0.051   0.6139     H
H       0.9806   0.1139    0.551     H
H       0.9806   0.1361    0.699     H
H       0.9806    0.199   0.6361     H
H       0.9806    0.551   0.1139     H
H       0.9806   0.6139    0.051     H
H       0.9806   0.6361    0.199     H
H       0.9806    0.699   0.1361     H
C       0.9868  0.02852  0.61267     C
C       0.9868  0.11267  0.52852     C
C       0.9868  0.13733  0.72148     C
C       0.9868  0.22148  0.63733     C
C       0.9868  0.52852  0.11267     C
C       0.9868  0.61267  0.02852     C
C       0.9868  0.63733  0.22148     C
C       0.9868  0.72148  0.13733     C
H       0.9894   0.0597   0.3939     H
H       0.9894   0.1903   0.8561     H
H       0.9894   0.3561   0.6903     H
H       0.9894   0.3939   0.0597     H
H       0.9894   0.5597   0.8939     H
H       0.9894   0.6903   0.3561     H
H       0.9894   0.8561   0.1903     H
H       0.9894   0.8939   0.5597     H
C      0.99561  0.03729  0.39246     C
C      0.99561  0.21271  0.85754     C
C      0.99561  0.35754  0.71271     C
C      0.99561  0.39246  0.03729     C
C      0.99561  0.53729  0.89246     C
C      0.99561  0.71271  0.35754     C
C      0.99561  0.85754  0.21271     C
C      0.99561  0.89246  0.53729     C
