data_I
_chemical_name_common  '/home/zhangsd/repos/MofS-CGCNN/ML/data/WS24/clean_cifs/WUPVAG'
_cell_length_a 39.79010
_cell_length_b 39.79010
_cell_length_c 39.79010
_cell_angle_alpha 90.00000
_cell_angle_beta  90.00000
_cell_angle_gamma 90.00000
_space_group_name_H-M_alt      'P 1'


loop_
_space_group_symop_operation_xyz
  'x, y, z' 

loop_
_atom_site_label
_atom_site_fract_x
_atom_site_fract_y
_atom_site_fract_z
_atom_site_type_symbol
C      0.00539  0.10766  0.46252     C
C      0.00539  0.14234  0.78748     C
C      0.00539  0.28748  0.64234     C
C      0.00539  0.46252  0.10766     C
C      0.00539  0.60766  0.96252     C
C      0.00539  0.64234  0.28748     C
C      0.00539  0.78748  0.14234     C
C      0.00539  0.96252  0.60766     C
H       0.0118   0.1042   0.4398     H
H       0.0118   0.1458   0.8102     H
H       0.0118   0.3102   0.6458     H
H       0.0118   0.4398   0.1042     H
H       0.0118   0.6042   0.9398     H
H       0.0118   0.6458   0.3102     H
H       0.0118   0.8102   0.1458     H
H       0.0118   0.9398   0.6042     H
C      0.01358  0.27979  0.86396     C
C      0.01358  0.36396  0.77979     C
C      0.01358  0.38604  0.97021     C
C      0.01358  0.47021  0.88604     C
C      0.01358  0.77979  0.36396     C
C      0.01358  0.86396  0.27979     C
C      0.01358  0.88604  0.47021     C
C      0.01358  0.97021  0.38604     C
H       0.0198   0.3027   0.8661     H
H       0.0198   0.3661   0.8027     H
H       0.0198   0.3839   0.9473     H
H       0.0198   0.4473   0.8839     H
H       0.0198   0.8027   0.3661     H
H       0.0198   0.8661   0.3027     H
H       0.0198   0.8839   0.4473     H
H       0.0198   0.9473   0.3839     H
C      0.01994  0.01994  0.61713     C
C      0.01994  0.11713  0.51994     C
C      0.01994  0.13287  0.73006     C
C      0.01994  0.23006  0.63287     C
C      0.01994  0.51994  0.11713     C
C      0.01994  0.61713  0.01994     C
C      0.01994  0.63287  0.23006     C
C      0.01994  0.73006  0.13287     C
C      0.02878  0.02878   0.3937     C
C      0.02878  0.22122   0.8563     C
C      0.02878   0.3563  0.72122     C
C      0.02878   0.3937  0.02878     C
C      0.02878  0.52878   0.8937     C
C      0.02878  0.72122   0.3563     C
C      0.02878   0.8563  0.22122     C
C      0.02878   0.8937  0.52878     C
C      0.02979  0.11396  0.48642     C
C      0.02979  0.13604  0.76358     C
C      0.02979  0.26358  0.63604     C
C      0.02979  0.48642  0.11396     C
C      0.02979  0.61396  0.98642     C
C      0.02979  0.63604  0.26358     C
C      0.02979  0.76358  0.13604     C
C      0.02979  0.98642  0.61396     C
O      0.03554  0.07688  0.62415     O
O      0.03554  0.12415  0.57688     O
O      0.03554  0.12585  0.67312     O
O      0.03554  0.17312  0.62585     O
O      0.03554  0.57688  0.12415     O
O      0.03554  0.62415  0.07688     O
O      0.03554  0.62585  0.17312     O
O      0.03554  0.67312  0.12585     O
C      0.03748  0.25539  0.85766     C
C      0.03748  0.35766  0.75539     C
C      0.03748  0.39234  0.99461     C
C      0.03748  0.49461  0.89234     C
C      0.03748  0.75539  0.35766     C
C      0.03748  0.85766  0.25539     C
C      0.03748  0.89234  0.49461     C
C      0.03748  0.99461  0.39234     C
C      0.04627  0.04627  0.62155     C
C      0.04627  0.12155  0.54627     C
C      0.04627  0.12845  0.70373     C
C      0.04627  0.20373  0.62845     C
C      0.04627  0.54627  0.12155     C
C      0.04627  0.62155  0.04627     C
C      0.04627  0.62845  0.20373     C
C      0.04627  0.70373  0.12845     C
H       0.0527   0.1161   0.4802     H
H       0.0527   0.1339   0.7698     H
H       0.0527   0.2698   0.6339     H
H       0.0527   0.4802   0.1161     H
H       0.0527   0.6161   0.9802     H
H       0.0527   0.6339   0.2698     H
H       0.0527   0.7698   0.1339     H
H       0.0527   0.9802   0.6161     H
C      0.05372  0.05372    0.399     C
C      0.05372  0.19628    0.851     C
C      0.05372    0.351  0.69628     C
C      0.05372    0.399  0.05372     C
C      0.05372  0.55372    0.899     C
C      0.05372  0.69628    0.351     C
C      0.05372    0.851  0.19628     C
C      0.05372    0.899  0.55372     C
H       0.0602   0.2618   0.8542     H
H       0.0602   0.3542   0.7618     H
H       0.0602   0.3958   0.9882     H
H       0.0602   0.4882   0.8958     H
H       0.0602   0.7618   0.3542     H
H       0.0602   0.8542   0.2618     H
H       0.0602   0.8958   0.4882     H
H       0.0602   0.9882   0.3958     H
Hf     0.06313    0.125    0.625    Hf
Hf     0.06313    0.625    0.125    Hf
H       0.0686   0.1105   0.8405     H
H       0.0686   0.1395   0.4095     H
H       0.0686   0.3405   0.6105     H
H       0.0686   0.4095   0.1395     H
H       0.0686   0.6105   0.3405     H
H       0.0686   0.6395   0.9095     H
H       0.0686   0.8405   0.1105     H
H       0.0686   0.9095   0.6395     H
C      0.07489  0.07489   0.4038     C
C      0.07489  0.17511   0.8462     C
C      0.07489   0.3462  0.67511     C
C      0.07489   0.4038  0.07489     C
C      0.07489  0.57489   0.9038     C
C      0.07489  0.67511   0.3462     C
C      0.07489   0.8462  0.17511     C
C      0.07489   0.9038  0.57489     C
O      0.07688  0.03554  0.62415     O
O      0.07688  0.12415  0.53554     O
O      0.07688  0.12585  0.71446     O
O      0.07688  0.21446  0.62585     O
O      0.07688  0.53554  0.12415     O
O      0.07688  0.62415  0.03554     O
O      0.07688  0.62585  0.21446     O
O      0.07688  0.71446  0.12585     O
H       0.0905   0.3186   0.8895     H
H       0.0905   0.3605   0.9314     H
H       0.0905   0.3895   0.8186     H
H       0.0905   0.4314   0.8605     H
H       0.0905   0.8186   0.3895     H
H       0.0905   0.8605   0.4314     H
H       0.0905   0.8895   0.3186     H
H       0.0905   0.9314   0.3605     H
O      0.09118  0.09118  0.65882     O
O      0.09118  0.15882  0.59118     O
O      0.09118  0.59118  0.15882     O
O      0.09118  0.65882  0.09118     O
C      0.09165  0.11672   0.8417     C
C      0.09165  0.13328   0.4083     C
C      0.09165   0.3417  0.61672     C
C      0.09165   0.4083  0.13328     C
C      0.09165  0.61672   0.3417     C
C      0.09165  0.63328   0.9083     C
C      0.09165   0.8417  0.11672     C
C      0.09165   0.9083  0.63328     C
C       0.0917  0.34165  0.88328     C
C       0.0917  0.36672  0.90835     C
C       0.0917  0.38328  0.84165     C
C       0.0917  0.40835  0.86672     C
C       0.0917  0.84165  0.38328     C
C       0.0917  0.86672  0.40835     C
C       0.0917  0.88328  0.34165     C
C       0.0917  0.90835  0.36672     C
C       0.0934  0.35036  0.85036     C
C       0.0934  0.39964  0.89964     C
C       0.0934  0.85036  0.35036     C
C       0.0934  0.89964  0.39964     C
C       0.0962  0.32489  0.82489     C
C       0.0962  0.42511  0.92511     C
C       0.0962  0.82489  0.32489     C
C       0.0962  0.92511  0.42511     C
O      0.09668  0.09668  0.59668     O
O      0.09668  0.15332  0.65332     O
O      0.09668  0.59668  0.09668     O
O      0.09668  0.65332  0.15332     O
C      0.10036  0.10036   0.4066     C
C      0.10036  0.14964   0.8434     C
C      0.10036   0.3434  0.64964     C
C      0.10036   0.4066  0.10036     C
C      0.10036  0.60036   0.9066     C
C      0.10036  0.64964   0.3434     C
C      0.10036   0.8434  0.14964     C
C      0.10036   0.9066  0.60036     C
C        0.101  0.30372  0.80372     C
C        0.101  0.44628  0.94628     C
C        0.101  0.80372  0.30372     C
C        0.101  0.94628  0.44628     C
H       0.1042   0.0118   0.4398     H
H       0.1042   0.2382   0.8102     H
H       0.1042   0.3102   0.7382     H
H       0.1042   0.4398   0.0118     H
H       0.1042   0.5118   0.9398     H
H       0.1042   0.7382   0.3102     H
H       0.1042   0.8102   0.2382     H
H       0.1042   0.9398   0.5118     H
C       0.1063  0.27878  0.77878     C
C       0.1063  0.47122  0.97122     C
C       0.1063  0.77878  0.27878     C
C       0.1063  0.97122  0.47122     C
C      0.10766  0.00539  0.46252     C
C      0.10766  0.24461  0.78748     C
C      0.10766  0.28748  0.74461     C
C      0.10766  0.46252  0.00539     C
C      0.10766  0.50539  0.96252     C
C      0.10766  0.74461  0.28748     C
C      0.10766  0.78748  0.24461     C
C      0.10766  0.96252  0.50539     C
H       0.1105   0.0686   0.8405     H
H       0.1105   0.1814   0.4095     H
H       0.1105   0.3405   0.5686     H
H       0.1105   0.4095   0.1814     H
H       0.1105   0.5686   0.3405     H
H       0.1105   0.6814   0.9095     H
H       0.1105   0.8405   0.0686     H
H       0.1105   0.9095   0.6814     H
C      0.11396  0.02979  0.48642     C
C      0.11396  0.22021  0.76358     C
C      0.11396  0.26358  0.72021     C
C      0.11396  0.48642  0.02979     C
C      0.11396  0.52979  0.98642     C
C      0.11396  0.72021  0.26358     C
C      0.11396  0.76358  0.22021     C
C      0.11396  0.98642  0.52979     C
H       0.1161   0.0527   0.4802     H
H       0.1161   0.1973   0.7698     H
H       0.1161   0.2698   0.6973     H
H       0.1161   0.4802   0.0527     H
H       0.1161   0.5527   0.9802     H
H       0.1161   0.6973   0.2698     H
H       0.1161   0.7698   0.1973     H
H       0.1161   0.9802   0.5527     H
C      0.11672  0.09165   0.8417     C
C      0.11672  0.15835   0.4083     C
C      0.11672   0.3417  0.59165     C
C      0.11672   0.4083  0.15835     C
C      0.11672  0.59165   0.3417     C
C      0.11672  0.65835   0.9083     C
C      0.11672   0.8417  0.09165     C
C      0.11672   0.9083  0.65835     C
C      0.11713  0.01994  0.51994     C
C      0.11713  0.23006  0.73006     C
C      0.11713  0.51994  0.01994     C
C      0.11713  0.73006  0.23006     C
C      0.12155  0.04627  0.54627     C
C      0.12155  0.20373  0.70373     C
C      0.12155  0.54627  0.04627     C
C      0.12155  0.70373  0.20373     C
O      0.12415  0.03554  0.57688     O
O      0.12415  0.07688  0.53554     O
O      0.12415  0.17312  0.71446     O
O      0.12415  0.21446  0.67312     O
O      0.12415  0.53554  0.07688     O
O      0.12415  0.57688  0.03554     O
O      0.12415  0.67312  0.21446     O
O      0.12415  0.71446  0.17312     O
Hf       0.125  0.06313    0.625    Hf
Hf       0.125    0.125  0.56313    Hf
Hf       0.125    0.125  0.68687    Hf
Hf       0.125  0.18687    0.625    Hf
Hf       0.125  0.56313    0.125    Hf
Hf       0.125    0.625  0.06313    Hf
Hf       0.125    0.625  0.18687    Hf
Hf       0.125  0.68687    0.125    Hf
O      0.12585  0.03554  0.67312     O
O      0.12585  0.07688  0.71446     O
O      0.12585  0.17312  0.53554     O
O      0.12585  0.21446  0.57688     O
O      0.12585  0.53554  0.17312     O
O      0.12585  0.57688  0.21446     O
O      0.12585  0.67312  0.03554     O
O      0.12585  0.71446  0.07688     O
C      0.12845  0.04627  0.70373     C
C      0.12845  0.20373  0.54627     C
C      0.12845  0.54627  0.20373     C
C      0.12845  0.70373  0.04627     C
C      0.13287  0.01994  0.73006     C
C      0.13287  0.23006  0.51994     C
C      0.13287  0.51994  0.23006     C
C      0.13287  0.73006  0.01994     C
C      0.13328  0.09165   0.4083     C
C      0.13328  0.15835   0.8417     C
C      0.13328   0.3417  0.65835     C
C      0.13328   0.4083  0.09165     C
C      0.13328  0.59165   0.9083     C
C      0.13328  0.65835   0.3417     C
C      0.13328   0.8417  0.15835     C
C      0.13328   0.9083  0.59165     C
H       0.1339   0.0527   0.7698     H
H       0.1339   0.1973   0.4802     H
H       0.1339   0.2698   0.5527     H
H       0.1339   0.4802   0.1973     H
H       0.1339   0.5527   0.2698     H
H       0.1339   0.6973   0.9802     H
H       0.1339   0.7698   0.0527     H
H       0.1339   0.9802   0.6973     H
C      0.13604  0.02979  0.76358     C
C      0.13604  0.22021  0.48642     C
C      0.13604  0.26358  0.52979     C
C      0.13604  0.48642  0.22021     C
C      0.13604  0.52979  0.26358     C
C      0.13604  0.72021  0.98642     C
C      0.13604  0.76358  0.02979     C
C      0.13604  0.98642  0.72021     C
H       0.1395   0.0686   0.4095     H
H       0.1395   0.1814   0.8405     H
H       0.1395   0.3405   0.6814     H
H       0.1395   0.4095   0.0686     H
H       0.1395   0.5686   0.9095     H
H       0.1395   0.6814   0.3405     H
H       0.1395   0.8405   0.1814     H
H       0.1395   0.9095   0.5686     H
C      0.14234  0.00539  0.78748     C
C      0.14234  0.24461  0.46252     C
C      0.14234  0.28748  0.50539     C
C      0.14234  0.46252  0.24461     C
C      0.14234  0.50539  0.28748     C
C      0.14234  0.74461  0.96252     C
C      0.14234  0.78748  0.00539     C
C      0.14234  0.96252  0.74461     C
C       0.1437  0.27878  0.47122     C
C       0.1437  0.47122  0.27878     C
C       0.1437  0.77878  0.97122     C
C       0.1437  0.97122  0.77878     C
H       0.1458   0.0118   0.8102     H
H       0.1458   0.2382   0.4398     H
H       0.1458   0.3102   0.5118     H
H       0.1458   0.4398   0.2382     H
H       0.1458   0.5118   0.3102     H
H       0.1458   0.7382   0.9398     H
H       0.1458   0.8102   0.0118     H
H       0.1458   0.9398   0.7382     H
C        0.149  0.30372  0.44628     C
C        0.149  0.44628  0.30372     C
C        0.149  0.80372  0.94628     C
C        0.149  0.94628  0.80372     C
C      0.14964  0.10036   0.8434     C
C      0.14964  0.14964   0.4066     C
C      0.14964   0.3434  0.60036     C
C      0.14964   0.4066  0.14964     C
C      0.14964  0.60036   0.3434     C
C      0.14964  0.64964   0.9066     C
C      0.14964   0.8434  0.10036     C
C      0.14964   0.9066  0.64964     C
O      0.15332  0.09668  0.65332     O
O      0.15332  0.15332  0.59668     O
O      0.15332  0.59668  0.15332     O
O      0.15332  0.65332  0.09668     O
C       0.1538  0.32489  0.42511     C
C       0.1538  0.42511  0.32489     C
C       0.1538  0.82489  0.92511     C
C       0.1538  0.92511  0.82489     C
C       0.1566  0.35036  0.39964     C
C       0.1566  0.39964  0.35036     C
C       0.1566  0.85036  0.89964     C
C       0.1566  0.89964  0.85036     C
C       0.1583  0.34165  0.36672     C
C       0.1583  0.36672  0.34165     C
C       0.1583  0.38328  0.40835     C
C       0.1583  0.40835  0.38328     C
C       0.1583  0.84165  0.86672     C
C       0.1583  0.86672  0.84165     C
C       0.1583  0.88328  0.90835     C
C       0.1583  0.90835  0.88328     C
C      0.15835  0.11672   0.4083     C
C      0.15835  0.13328   0.8417     C
C      0.15835   0.3417  0.63328     C
C      0.15835   0.4083  0.11672     C
C      0.15835  0.61672   0.9083     C
C      0.15835  0.63328   0.3417     C
C      0.15835   0.8417  0.13328     C
C      0.15835   0.9083  0.61672     C
O      0.15882  0.09118  0.59118     O
O      0.15882  0.15882  0.65882     O
O      0.15882  0.59118  0.09118     O
O      0.15882  0.65882  0.15882     O
H       0.1595   0.3186   0.3605     H
H       0.1595   0.3605   0.3186     H
H       0.1595   0.3895   0.4314     H
H       0.1595   0.4314   0.3895     H
H       0.1595   0.8186   0.8605     H
H       0.1595   0.8605   0.8186     H
H       0.1595   0.8895   0.9314     H
H       0.1595   0.9314   0.8895     H
O      0.17312  0.03554  0.62585     O
O      0.17312  0.12415  0.71446     O
O      0.17312  0.12585  0.53554     O
O      0.17312  0.21446  0.62415     O
O      0.17312  0.53554  0.12585     O
O      0.17312  0.62415  0.21446     O
O      0.17312  0.62585  0.03554     O
O      0.17312  0.71446  0.12415     O
C      0.17511  0.07489   0.8462     C
C      0.17511  0.17511   0.4038     C
C      0.17511   0.3462  0.57489     C
C      0.17511   0.4038  0.17511     C
C      0.17511  0.57489   0.3462     C
C      0.17511  0.67511   0.9038     C
C      0.17511   0.8462  0.07489     C
C      0.17511   0.9038  0.67511     C
H       0.1814   0.1105   0.4095     H
H       0.1814   0.1395   0.8405     H
H       0.1814   0.3405   0.6395     H
H       0.1814   0.4095   0.1105     H
H       0.1814   0.6105   0.9095     H
H       0.1814   0.6395   0.3405     H
H       0.1814   0.8405   0.1395     H
H       0.1814   0.9095   0.6105     H
Hf     0.18687    0.125    0.625    Hf
Hf     0.18687    0.625    0.125    Hf
H       0.1898   0.2618   0.3958     H
H       0.1898   0.3542   0.4882     H
H       0.1898   0.3958   0.2618     H
H       0.1898   0.4882   0.3542     H
H       0.1898   0.7618   0.8958     H
H       0.1898   0.8542   0.9882     H
H       0.1898   0.8958   0.7618     H
H       0.1898   0.9882   0.8542     H
C      0.19628  0.05372    0.851     C
C      0.19628  0.19628    0.399     C
C      0.19628    0.351  0.55372     C
C      0.19628    0.399  0.19628     C
C      0.19628  0.55372    0.351     C
C      0.19628  0.69628    0.899     C
C      0.19628    0.851  0.05372     C
C      0.19628    0.899  0.69628     C
H       0.1973   0.1161   0.7698     H
H       0.1973   0.1339   0.4802     H
H       0.1973   0.2698   0.6161     H
H       0.1973   0.4802   0.1339     H
H       0.1973   0.6161   0.2698     H
H       0.1973   0.6339   0.9802     H
H       0.1973   0.7698   0.1161     H
H       0.1973   0.9802   0.6339     H
C      0.20373  0.04627  0.62845     C
C      0.20373  0.12155  0.70373     C
C      0.20373  0.12845  0.54627     C
C      0.20373  0.20373  0.62155     C
C      0.20373  0.54627  0.12845     C
C      0.20373  0.62155  0.20373     C
C      0.20373  0.62845  0.04627     C
C      0.20373  0.70373  0.12155     C
C      0.21252  0.25539  0.39234     C
C      0.21252  0.35766  0.49461     C
C      0.21252  0.39234  0.25539     C
C      0.21252  0.49461  0.35766     C
C      0.21252  0.75539  0.89234     C
C      0.21252  0.85766  0.99461     C
C      0.21252  0.89234  0.75539     C
C      0.21252  0.99461  0.85766     C
O      0.21446  0.07688  0.62585     O
O      0.21446  0.12415  0.67312     O
O      0.21446  0.12585  0.57688     O
O      0.21446  0.17312  0.62415     O
O      0.21446  0.57688  0.12585     O
O      0.21446  0.62415  0.17312     O
O      0.21446  0.62585  0.07688     O
O      0.21446  0.67312  0.12415     O
C      0.22021  0.11396  0.76358     C
C      0.22021  0.13604  0.48642     C
C      0.22021  0.26358  0.61396     C
C      0.22021  0.48642  0.13604     C
C      0.22021  0.61396  0.26358     C
C      0.22021  0.63604  0.98642     C
C      0.22021  0.76358  0.11396     C
C      0.22021  0.98642  0.63604     C
C      0.22122  0.02878   0.8563     C
C      0.22122  0.22122   0.3937     C
C      0.22122   0.3563  0.52878     C
C      0.22122   0.3937  0.22122     C
C      0.22122  0.52878   0.3563     C
C      0.22122  0.72122   0.8937     C
C      0.22122   0.8563  0.02878     C
C      0.22122   0.8937  0.72122     C
C      0.23006  0.01994  0.63287     C
C      0.23006  0.11713  0.73006     C
C      0.23006  0.13287  0.51994     C
C      0.23006  0.23006  0.61713     C
C      0.23006  0.51994  0.13287     C
C      0.23006  0.61713  0.23006     C
C      0.23006  0.63287  0.01994     C
C      0.23006  0.73006  0.11713     C
H       0.2302   0.3027   0.3839     H
H       0.2302   0.3661   0.4473     H
H       0.2302   0.3839   0.3027     H
H       0.2302   0.4473   0.3661     H
H       0.2302   0.8027   0.8839     H
H       0.2302   0.8661   0.9473     H
H       0.2302   0.8839   0.8027     H
H       0.2302   0.9473   0.8661     H
C      0.23642  0.27979  0.38604     C
C      0.23642  0.36396  0.47021     C
C      0.23642  0.38604  0.27979     C
C      0.23642  0.47021  0.36396     C
C      0.23642  0.77979  0.88604     C
C      0.23642  0.86396  0.97021     C
C      0.23642  0.88604  0.77979     C
C      0.23642  0.97021  0.86396     C
H       0.2382   0.1042   0.8102     H
H       0.2382   0.1458   0.4398     H
H       0.2382   0.3102   0.6042     H
H       0.2382   0.4398   0.1458     H
H       0.2382   0.6042   0.3102     H
H       0.2382   0.6458   0.9398     H
H       0.2382   0.8102   0.1042     H
H       0.2382   0.9398   0.6458     H
C      0.24461  0.10766  0.78748     C
C      0.24461  0.14234  0.46252     C
C      0.24461  0.28748  0.60766     C
C      0.24461  0.46252  0.14234     C
C      0.24461  0.60766  0.28748     C
C      0.24461  0.64234  0.96252     C
C      0.24461  0.78748  0.10766     C
C      0.24461  0.96252  0.64234     C
C      0.25539  0.03748  0.85766     C
C      0.25539  0.21252  0.39234     C
C      0.25539  0.35766  0.53748     C
C      0.25539  0.39234  0.21252     C
C      0.25539  0.53748  0.35766     C
C      0.25539  0.71252  0.89234     C
C      0.25539  0.85766  0.03748     C
C      0.25539  0.89234  0.71252     C
H       0.2618   0.0602   0.8542     H
H       0.2618   0.1898   0.3958     H
H       0.2618   0.3542   0.5602     H
H       0.2618   0.3958   0.1898     H
H       0.2618   0.5602   0.3542     H
H       0.2618   0.6898   0.8958     H
H       0.2618   0.8542   0.0602     H
H       0.2618   0.8958   0.6898     H
C      0.26358  0.02979  0.63604     C
C      0.26358  0.11396  0.72021     C
C      0.26358  0.13604  0.52979     C
C      0.26358  0.22021  0.61396     C
C      0.26358  0.52979  0.13604     C
C      0.26358  0.61396  0.22021     C
C      0.26358  0.63604  0.02979     C
C      0.26358  0.72021  0.11396     C
H       0.2698   0.0527   0.6339     H
H       0.2698   0.1161   0.6973     H
H       0.2698   0.1339   0.5527     H
H       0.2698   0.1973   0.6161     H
H       0.2698   0.5527   0.1339     H
H       0.2698   0.6161   0.1973     H
H       0.2698   0.6339   0.0527     H
H       0.2698   0.6973   0.1161     H
C      0.26994  0.26994  0.38287     C
C      0.26994  0.36713  0.48006     C
C      0.26994  0.38287  0.26994     C
C      0.26994  0.48006  0.36713     C
C      0.26994  0.76994  0.88287     C
C      0.26994  0.86713  0.98006     C
C      0.26994  0.88287  0.76994     C
C      0.26994  0.98006  0.86713     C
C      0.27878   0.1063  0.77878     C
C      0.27878   0.1437  0.47122     C
C      0.27878  0.27878   0.6063     C
C      0.27878  0.47122   0.1437     C
C      0.27878   0.6063  0.27878     C
C      0.27878   0.6437  0.97122     C
C      0.27878  0.77878   0.1063     C
C      0.27878  0.97122   0.6437     C
C      0.27979  0.01358  0.86396     C
C      0.27979  0.23642  0.38604     C
C      0.27979  0.36396  0.51358     C
C      0.27979  0.38604  0.23642     C
C      0.27979  0.51358  0.36396     C
C      0.27979  0.73642  0.88604     C
C      0.27979  0.86396  0.01358     C
C      0.27979  0.88604  0.73642     C
O      0.28554  0.32688  0.37585     O
O      0.28554  0.37415  0.42312     O
O      0.28554  0.37585  0.32688     O
O      0.28554  0.42312  0.37415     O
O      0.28554  0.82688  0.87585     O
O      0.28554  0.87415  0.92312     O
O      0.28554  0.87585  0.82688     O
O      0.28554  0.92312  0.87415     O
C      0.28748  0.00539  0.64234     C
C      0.28748  0.10766  0.74461     C
C      0.28748  0.14234  0.50539     C
C      0.28748  0.24461  0.60766     C
C      0.28748  0.50539  0.14234     C
C      0.28748  0.60766  0.24461     C
C      0.28748  0.64234  0.00539     C
C      0.28748  0.74461  0.10766     C
C      0.29627  0.29627  0.37845     C
C      0.29627  0.37155  0.45373     C
C      0.29627  0.37845  0.29627     C
C      0.29627  0.45373  0.37155     C
C      0.29627  0.79627  0.87845     C
C      0.29627  0.87155  0.95373     C
C      0.29627  0.87845  0.79627     C
C      0.29627  0.95373  0.87155     C
H       0.3027   0.0198   0.8661     H
H       0.3027   0.2302   0.3839     H
H       0.3027   0.3661   0.5198     H
H       0.3027   0.3839   0.2302     H
H       0.3027   0.5198   0.3661     H
H       0.3027   0.7302   0.8839     H
H       0.3027   0.8661   0.0198     H
H       0.3027   0.8839   0.7302     H
C      0.30372    0.101  0.80372     C
C      0.30372    0.149  0.44628     C
C      0.30372  0.30372    0.601     C
C      0.30372  0.44628    0.149     C
C      0.30372    0.601  0.30372     C
C      0.30372    0.649  0.94628     C
C      0.30372  0.80372    0.101     C
C      0.30372  0.94628    0.649     C
H       0.3102   0.0118   0.6458     H
H       0.3102   0.1042   0.7382     H
H       0.3102   0.1458   0.5118     H
H       0.3102   0.2382   0.6042     H
H       0.3102   0.5118   0.1458     H
H       0.3102   0.6042   0.2382     H
H       0.3102   0.6458   0.0118     H
H       0.3102   0.7382   0.1042     H
Hf     0.31313    0.375    0.375    Hf
Hf     0.31313    0.875    0.875    Hf
H       0.3186   0.0905   0.8895     H
H       0.3186   0.1595   0.3605     H
H       0.3186   0.3605   0.1595     H
H       0.3186   0.3895   0.5905     H
H       0.3186   0.5905   0.3895     H
H       0.3186   0.6595   0.8605     H
H       0.3186   0.8605   0.6595     H
H       0.3186   0.8895   0.0905     H
C      0.32489   0.0962  0.82489     C
C      0.32489   0.1538  0.42511     C
C      0.32489  0.32489   0.5962     C
C      0.32489  0.42511   0.1538     C
C      0.32489   0.5962  0.32489     C
C      0.32489   0.6538  0.92511     C
C      0.32489  0.82489   0.0962     C
C      0.32489  0.92511   0.6538     C
O      0.32688  0.28554  0.37585     O
O      0.32688  0.37415  0.46446     O
O      0.32688  0.37585  0.28554     O
O      0.32688  0.46446  0.37415     O
O      0.32688  0.78554  0.87585     O
O      0.32688  0.87415  0.96446     O
O      0.32688  0.87585  0.78554     O
O      0.32688  0.96446  0.87415     O
H       0.3405   0.0686   0.6105     H
H       0.3405   0.1105   0.5686     H
H       0.3405   0.1395   0.6814     H
H       0.3405   0.1814   0.6395     H
H       0.3405   0.5686   0.1105     H
H       0.3405   0.6105   0.0686     H
H       0.3405   0.6395   0.1814     H
H       0.3405   0.6814   0.1395     H
O      0.34118  0.34118  0.34118     O
O      0.34118  0.40882  0.40882     O
O      0.34118  0.84118  0.84118     O
O      0.34118  0.90882  0.90882     O
C      0.34165   0.0917  0.88328     C
C      0.34165   0.1583  0.36672     C
C      0.34165  0.36672   0.1583     C
C      0.34165  0.38328   0.5917     C
C      0.34165   0.5917  0.38328     C
C      0.34165   0.6583  0.86672     C
C      0.34165  0.86672   0.6583     C
C      0.34165  0.88328   0.0917     C
C       0.3417  0.09165  0.61672     C
C       0.3417  0.11672  0.59165     C
C       0.3417  0.13328  0.65835     C
C       0.3417  0.15835  0.63328     C
C       0.3417  0.59165  0.11672     C
C       0.3417  0.61672  0.09165     C
C       0.3417  0.63328  0.15835     C
C       0.3417  0.65835  0.13328     C
C       0.3434  0.10036  0.64964     C
C       0.3434  0.14964  0.60036     C
C       0.3434  0.60036  0.14964     C
C       0.3434  0.64964  0.10036     C
C       0.3462  0.07489  0.67511     C
C       0.3462  0.17511  0.57489     C
C       0.3462  0.57489  0.17511     C
C       0.3462  0.67511  0.07489     C
O      0.34668  0.34668  0.40332     O
O      0.34668  0.40332  0.34668     O
O      0.34668  0.84668  0.90332     O
O      0.34668  0.90332  0.84668     O
C      0.35036   0.0934  0.85036     C
C      0.35036   0.1566  0.39964     C
C      0.35036  0.35036   0.5934     C
C      0.35036  0.39964   0.1566     C
C      0.35036   0.5934  0.35036     C
C      0.35036   0.6566  0.89964     C
C      0.35036  0.85036   0.0934     C
C      0.35036  0.89964   0.6566     C
C        0.351  0.05372  0.69628     C
C        0.351  0.19628  0.55372     C
C        0.351  0.55372  0.19628     C
C        0.351  0.69628  0.05372     C
H       0.3542   0.0602   0.7618     H
H       0.3542   0.1898   0.4882     H
H       0.3542   0.2618   0.5602     H
H       0.3542   0.4882   0.1898     H
H       0.3542   0.5602   0.2618     H
H       0.3542   0.6898   0.9882     H
H       0.3542   0.7618   0.0602     H
H       0.3542   0.9882   0.6898     H
C       0.3563  0.02878  0.72122     C
C       0.3563  0.22122  0.52878     C
C       0.3563  0.52878  0.22122     C
C       0.3563  0.72122  0.02878     C
C      0.35766  0.03748  0.75539     C
C      0.35766  0.21252  0.49461     C
C      0.35766  0.25539  0.53748     C
C      0.35766  0.49461  0.21252     C
C      0.35766  0.53748  0.25539     C
C      0.35766  0.71252  0.99461     C
C      0.35766  0.75539  0.03748     C
C      0.35766  0.99461  0.71252     C
H       0.3605   0.0905   0.9314     H
H       0.3605   0.1595   0.3186     H
H       0.3605   0.3186   0.1595     H
H       0.3605   0.4314   0.5905     H
H       0.3605   0.5905   0.4314     H
H       0.3605   0.6595   0.8186     H
H       0.3605   0.8186   0.6595     H
H       0.3605   0.9314   0.0905     H
C      0.36396  0.01358  0.77979     C
C      0.36396  0.23642  0.47021     C
C      0.36396  0.27979  0.51358     C
C      0.36396  0.47021  0.23642     C
C      0.36396  0.51358  0.27979     C
C      0.36396  0.73642  0.97021     C
C      0.36396  0.77979  0.01358     C
C      0.36396  0.97021  0.73642     C
H       0.3661   0.0198   0.8027     H
H       0.3661   0.2302   0.4473     H
H       0.3661   0.3027   0.5198     H
H       0.3661   0.4473   0.2302     H
H       0.3661   0.5198   0.3027     H
H       0.3661   0.7302   0.9473     H
H       0.3661   0.8027   0.0198     H
H       0.3661   0.9473   0.7302     H
C      0.36672   0.0917  0.90835     C
C      0.36672   0.1583  0.34165     C
C      0.36672  0.34165   0.1583     C
C      0.36672  0.40835   0.5917     C
C      0.36672   0.5917  0.40835     C
C      0.36672   0.6583  0.84165     C
C      0.36672  0.84165   0.6583     C
C      0.36672  0.90835   0.0917     C
C      0.36713  0.26994  0.48006     C
C      0.36713  0.48006  0.26994     C
C      0.36713  0.76994  0.98006     C
C      0.36713  0.98006  0.76994     C
C      0.37155  0.29627  0.45373     C
C      0.37155  0.45373  0.29627     C
C      0.37155  0.79627  0.95373     C
C      0.37155  0.95373  0.79627     C
O      0.37415  0.28554  0.42312     O
O      0.37415  0.32688  0.46446     O
O      0.37415  0.42312  0.28554     O
O      0.37415  0.46446  0.32688     O
O      0.37415  0.78554  0.92312     O
O      0.37415  0.82688  0.96446     O
O      0.37415  0.92312  0.78554     O
O      0.37415  0.96446  0.82688     O
Hf       0.375  0.31313    0.375    Hf
Hf       0.375    0.375  0.31313    Hf
Hf       0.375    0.375  0.43687    Hf
Hf       0.375  0.43687    0.375    Hf
Hf       0.375  0.81313    0.875    Hf
Hf       0.375    0.875  0.81313    Hf
Hf       0.375    0.875  0.93687    Hf
Hf       0.375  0.93687    0.875    Hf
O      0.37585  0.28554  0.32688     O
O      0.37585  0.32688  0.28554     O
O      0.37585  0.42312  0.46446     O
O      0.37585  0.46446  0.42312     O
O      0.37585  0.78554  0.82688     O
O      0.37585  0.82688  0.78554     O
O      0.37585  0.92312  0.96446     O
O      0.37585  0.96446  0.92312     O
C      0.37845  0.29627  0.29627     C
C      0.37845  0.45373  0.45373     C
C      0.37845  0.79627  0.79627     C
C      0.37845  0.95373  0.95373     C
C      0.38287  0.26994  0.26994     C
C      0.38287  0.48006  0.48006     C
C      0.38287  0.76994  0.76994     C
C      0.38287  0.98006  0.98006     C
C      0.38328   0.0917  0.84165     C
C      0.38328   0.1583  0.40835     C
C      0.38328  0.34165   0.5917     C
C      0.38328  0.40835   0.1583     C
C      0.38328   0.5917  0.34165     C
C      0.38328   0.6583  0.90835     C
C      0.38328  0.84165   0.0917     C
C      0.38328  0.90835   0.6583     C
H       0.3839   0.0198   0.9473     H
H       0.3839   0.2302   0.3027     H
H       0.3839   0.3027   0.2302     H
H       0.3839   0.4473   0.5198     H
H       0.3839   0.5198   0.4473     H
H       0.3839   0.7302   0.8027     H
H       0.3839   0.8027   0.7302     H
H       0.3839   0.9473   0.0198     H
C      0.38604  0.01358  0.97021     C
C      0.38604  0.23642  0.27979     C
C      0.38604  0.27979  0.23642     C
C      0.38604  0.47021  0.51358     C
C      0.38604  0.51358  0.47021     C
C      0.38604  0.73642  0.77979     C
C      0.38604  0.77979  0.73642     C
C      0.38604  0.97021  0.01358     C
H       0.3895   0.0905   0.8186     H
H       0.3895   0.1595   0.4314     H
H       0.3895   0.3186   0.5905     H
H       0.3895   0.4314   0.1595     H
H       0.3895   0.5905   0.3186     H
H       0.3895   0.6595   0.9314     H
H       0.3895   0.8186   0.0905     H
H       0.3895   0.9314   0.6595     H
C      0.39234  0.03748  0.99461     C
C      0.39234  0.21252  0.25539     C
C      0.39234  0.25539  0.21252     C
C      0.39234  0.49461  0.53748     C
C      0.39234  0.53748  0.49461     C
C      0.39234  0.71252  0.75539     C
C      0.39234  0.75539  0.71252     C
C      0.39234  0.99461  0.03748     C
C       0.3937  0.02878  0.02878     C
C       0.3937  0.22122  0.22122     C
C       0.3937  0.52878  0.52878     C
C       0.3937  0.72122  0.72122     C
H       0.3958   0.0602   0.9882     H
H       0.3958   0.1898   0.2618     H
H       0.3958   0.2618   0.1898     H
H       0.3958   0.4882   0.5602     H
H       0.3958   0.5602   0.4882     H
H       0.3958   0.6898   0.7618     H
H       0.3958   0.7618   0.6898     H
H       0.3958   0.9882   0.0602     H
C        0.399  0.05372  0.05372     C
C        0.399  0.19628  0.19628     C
C        0.399  0.55372  0.55372     C
C        0.399  0.69628  0.69628     C
C      0.39964   0.0934  0.89964     C
C      0.39964   0.1566  0.35036     C
C      0.39964  0.35036   0.1566     C
C      0.39964  0.39964   0.5934     C
C      0.39964   0.5934  0.39964     C
C      0.39964   0.6566  0.85036     C
C      0.39964  0.85036   0.6566     C
C      0.39964  0.89964   0.0934     C
O      0.40332  0.34668  0.34668     O
O      0.40332  0.40332  0.40332     O
O      0.40332  0.84668  0.84668     O
O      0.40332  0.90332  0.90332     O
C       0.4038  0.07489  0.07489     C
C       0.4038  0.17511  0.17511     C
C       0.4038  0.57489  0.57489     C
C       0.4038  0.67511  0.67511     C
C       0.4066  0.10036  0.10036     C
C       0.4066  0.14964  0.14964     C
C       0.4066  0.60036  0.60036     C
C       0.4066  0.64964  0.64964     C
C       0.4083  0.09165  0.13328     C
C       0.4083  0.11672  0.15835     C
C       0.4083  0.13328  0.09165     C
C       0.4083  0.15835  0.11672     C
C       0.4083  0.59165  0.63328     C
C       0.4083  0.61672  0.65835     C
C       0.4083  0.63328  0.59165     C
C       0.4083  0.65835  0.61672     C
C      0.40835   0.0917  0.86672     C
C      0.40835   0.1583  0.38328     C
C      0.40835  0.36672   0.5917     C
C      0.40835  0.38328   0.1583     C
C      0.40835   0.5917  0.36672     C
C      0.40835   0.6583  0.88328     C
C      0.40835  0.86672   0.0917     C
C      0.40835  0.88328   0.6583     C
O      0.40882  0.34118  0.40882     O
O      0.40882  0.40882  0.34118     O
O      0.40882  0.84118  0.90882     O
O      0.40882  0.90882  0.84118     O
H       0.4095   0.0686   0.1395     H
H       0.4095   0.1105   0.1814     H
H       0.4095   0.1395   0.0686     H
H       0.4095   0.1814   0.1105     H
H       0.4095   0.5686   0.6395     H
H       0.4095   0.6105   0.6814     H
H       0.4095   0.6395   0.5686     H
H       0.4095   0.6814   0.6105     H
O      0.42312  0.28554  0.37415     O
O      0.42312  0.37415  0.28554     O
O      0.42312  0.37585  0.46446     O
O      0.42312  0.46446  0.37585     O
O      0.42312  0.78554  0.87415     O
O      0.42312  0.87415  0.78554     O
O      0.42312  0.87585  0.96446     O
O      0.42312  0.96446  0.87585     O
C      0.42511   0.0962  0.92511     C
C      0.42511   0.1538  0.32489     C
C      0.42511  0.32489   0.1538     C
C      0.42511  0.42511   0.5962     C
C      0.42511   0.5962  0.42511     C
C      0.42511   0.6538  0.82489     C
C      0.42511  0.82489   0.6538     C
C      0.42511  0.92511   0.0962     C
H       0.4314   0.0905   0.8605     H
H       0.4314   0.1595   0.3895     H
H       0.4314   0.3605   0.5905     H
H       0.4314   0.3895   0.1595     H
H       0.4314   0.5905   0.3605     H
H       0.4314   0.6595   0.8895     H
H       0.4314   0.8605   0.0905     H
H       0.4314   0.8895   0.6595     H
Hf     0.43687    0.375    0.375    Hf
Hf     0.43687    0.875    0.875    Hf
H       0.4398   0.0118   0.1042     H
H       0.4398   0.1042   0.0118     H
H       0.4398   0.1458   0.2382     H
H       0.4398   0.2382   0.1458     H
H       0.4398   0.5118   0.6042     H
H       0.4398   0.6042   0.5118     H
H       0.4398   0.6458   0.7382     H
H       0.4398   0.7382   0.6458     H
C      0.44628    0.101  0.94628     C
C      0.44628    0.149  0.30372     C
C      0.44628  0.30372    0.149     C
C      0.44628  0.44628    0.601     C
C      0.44628    0.601  0.44628     C
C      0.44628    0.649  0.80372     C
C      0.44628  0.80372    0.649     C
C      0.44628  0.94628    0.101     C
H       0.4473   0.0198   0.8839     H
H       0.4473   0.2302   0.3661     H
H       0.4473   0.3661   0.2302     H
H       0.4473   0.3839   0.5198     H
H       0.4473   0.5198   0.3839     H
H       0.4473   0.7302   0.8661     H
H       0.4473   0.8661   0.7302     H
H       0.4473   0.8839   0.0198     H
C      0.45373  0.29627  0.37155     C
C      0.45373  0.37155  0.29627     C
C      0.45373  0.37845  0.45373     C
C      0.45373  0.45373  0.37845     C
C      0.45373  0.79627  0.87155     C
C      0.45373  0.87155  0.79627     C
C      0.45373  0.87845  0.95373     C
C      0.45373  0.95373  0.87845     C
C      0.46252  0.00539  0.10766     C
C      0.46252  0.10766  0.00539     C
C      0.46252  0.14234  0.24461     C
C      0.46252  0.24461  0.14234     C
C      0.46252  0.50539  0.60766     C
C      0.46252  0.60766  0.50539     C
C      0.46252  0.64234  0.74461     C
C      0.46252  0.74461  0.64234     C
O      0.46446  0.32688  0.37415     O
O      0.46446  0.37415  0.32688     O
O      0.46446  0.37585  0.42312     O
O      0.46446  0.42312  0.37585     O
O      0.46446  0.82688  0.87415     O
O      0.46446  0.87415  0.82688     O
O      0.46446  0.87585  0.92312     O
O      0.46446  0.92312  0.87585     O
C      0.47021  0.01358  0.88604     C
C      0.47021  0.23642  0.36396     C
C      0.47021  0.36396  0.23642     C
C      0.47021  0.38604  0.51358     C
C      0.47021  0.51358  0.38604     C
C      0.47021  0.73642  0.86396     C
C      0.47021  0.86396  0.73642     C
C      0.47021  0.88604  0.01358     C
C      0.47122   0.1063  0.97122     C
C      0.47122   0.1437  0.27878     C
C      0.47122  0.27878   0.1437     C
C      0.47122  0.47122   0.6063     C
C      0.47122   0.6063  0.47122     C
C      0.47122   0.6437  0.77878     C
C      0.47122  0.77878   0.6437     C
C      0.47122  0.97122   0.1063     C
C      0.48006  0.26994  0.36713     C
C      0.48006  0.36713  0.26994     C
C      0.48006  0.38287  0.48006     C
C      0.48006  0.48006  0.38287     C
C      0.48006  0.76994  0.86713     C
C      0.48006  0.86713  0.76994     C
C      0.48006  0.88287  0.98006     C
C      0.48006  0.98006  0.88287     C
H       0.4802   0.0527   0.1161     H
H       0.4802   0.1161   0.0527     H
H       0.4802   0.1339   0.1973     H
H       0.4802   0.1973   0.1339     H
H       0.4802   0.5527   0.6161     H
H       0.4802   0.6161   0.5527     H
H       0.4802   0.6339   0.6973     H
H       0.4802   0.6973   0.6339     H
C      0.48642  0.02979  0.11396     C
C      0.48642  0.11396  0.02979     C
C      0.48642  0.13604  0.22021     C
C      0.48642  0.22021  0.13604     C
C      0.48642  0.52979  0.61396     C
C      0.48642  0.61396  0.52979     C
C      0.48642  0.63604  0.72021     C
C      0.48642  0.72021  0.63604     C
H       0.4882   0.0602   0.8958     H
H       0.4882   0.1898   0.3542     H
H       0.4882   0.3542   0.1898     H
H       0.4882   0.3958   0.5602     H
H       0.4882   0.5602   0.3958     H
H       0.4882   0.6898   0.8542     H
H       0.4882   0.8542   0.6898     H
H       0.4882   0.8958   0.0602     H
C      0.49461  0.03748  0.89234     C
C      0.49461  0.21252  0.35766     C
C      0.49461  0.35766  0.21252     C
C      0.49461  0.39234  0.53748     C
C      0.49461  0.53748  0.39234     C
C      0.49461  0.71252  0.85766     C
C      0.49461  0.85766  0.71252     C
C      0.49461  0.89234  0.03748     C
C      0.50539  0.10766  0.96252     C
C      0.50539  0.14234  0.28748     C
C      0.50539  0.28748  0.14234     C
C      0.50539  0.46252  0.60766     C
C      0.50539  0.60766  0.46252     C
C      0.50539  0.64234  0.78748     C
C      0.50539  0.78748  0.64234     C
C      0.50539  0.96252  0.10766     C
H       0.5118   0.1042   0.9398     H
H       0.5118   0.1458   0.3102     H
H       0.5118   0.3102   0.1458     H
H       0.5118   0.4398   0.6042     H
H       0.5118   0.6042   0.4398     H
H       0.5118   0.6458   0.8102     H
H       0.5118   0.8102   0.6458     H
H       0.5118   0.9398   0.1042     H
C      0.51358  0.27979  0.36396     C
C      0.51358  0.36396  0.27979     C
C      0.51358  0.38604  0.47021     C
C      0.51358  0.47021  0.38604     C
C      0.51358  0.77979  0.86396     C
C      0.51358  0.86396  0.77979     C
C      0.51358  0.88604  0.97021     C
C      0.51358  0.97021  0.88604     C
H       0.5198   0.3027   0.3661     H
H       0.5198   0.3661   0.3027     H
H       0.5198   0.3839   0.4473     H
H       0.5198   0.4473   0.3839     H
H       0.5198   0.8027   0.8661     H
H       0.5198   0.8661   0.8027     H
H       0.5198   0.8839   0.9473     H
H       0.5198   0.9473   0.8839     H
C      0.51994  0.01994  0.11713     C
C      0.51994  0.11713  0.01994     C
C      0.51994  0.13287  0.23006     C
C      0.51994  0.23006  0.13287     C
C      0.51994  0.51994  0.61713     C
C      0.51994  0.61713  0.51994     C
C      0.51994  0.63287  0.73006     C
C      0.51994  0.73006  0.63287     C
C      0.52878  0.02878   0.8937     C
C      0.52878  0.22122   0.3563     C
C      0.52878   0.3563  0.22122     C
C      0.52878   0.3937  0.52878     C
C      0.52878  0.52878   0.3937     C
C      0.52878  0.72122   0.8563     C
C      0.52878   0.8563  0.72122     C
C      0.52878   0.8937  0.02878     C
C      0.52979  0.11396  0.98642     C
C      0.52979  0.13604  0.26358     C
C      0.52979  0.26358  0.13604     C
C      0.52979  0.48642  0.61396     C
C      0.52979  0.61396  0.48642     C
C      0.52979  0.63604  0.76358     C
C      0.52979  0.76358  0.63604     C
C      0.52979  0.98642  0.11396     C
O      0.53554  0.07688  0.12415     O
O      0.53554  0.12415  0.07688     O
O      0.53554  0.12585  0.17312     O
O      0.53554  0.17312  0.12585     O
O      0.53554  0.57688  0.62415     O
O      0.53554  0.62415  0.57688     O
O      0.53554  0.62585  0.67312     O
O      0.53554  0.67312  0.62585     O
C      0.53748  0.25539  0.35766     C
C      0.53748  0.35766  0.25539     C
C      0.53748  0.39234  0.49461     C
C      0.53748  0.49461  0.39234     C
C      0.53748  0.75539  0.85766     C
C      0.53748  0.85766  0.75539     C
C      0.53748  0.89234  0.99461     C
C      0.53748  0.99461  0.89234     C
C      0.54627  0.04627  0.12155     C
C      0.54627  0.12155  0.04627     C
C      0.54627  0.12845  0.20373     C
C      0.54627  0.20373  0.12845     C
C      0.54627  0.54627  0.62155     C
C      0.54627  0.62155  0.54627     C
C      0.54627  0.62845  0.70373     C
C      0.54627  0.70373  0.62845     C
H       0.5527   0.1161   0.9802     H
H       0.5527   0.1339   0.2698     H
H       0.5527   0.2698   0.1339     H
H       0.5527   0.4802   0.6161     H
H       0.5527   0.6161   0.4802     H
H       0.5527   0.6339   0.7698     H
H       0.5527   0.7698   0.6339     H
H       0.5527   0.9802   0.1161     H
C      0.55372  0.05372    0.899     C
C      0.55372  0.19628    0.351     C
C      0.55372    0.351  0.19628     C
C      0.55372    0.399  0.55372     C
C      0.55372  0.55372    0.399     C
C      0.55372  0.69628    0.851     C
C      0.55372    0.851  0.69628     C
C      0.55372    0.899  0.05372     C
H       0.5602   0.2618   0.3542     H
H       0.5602   0.3542   0.2618     H
H       0.5602   0.3958   0.4882     H
H       0.5602   0.4882   0.3958     H
H       0.5602   0.7618   0.8542     H
H       0.5602   0.8542   0.7618     H
H       0.5602   0.8958   0.9882     H
H       0.5602   0.9882   0.8958     H
Hf     0.56313    0.125    0.125    Hf
Hf     0.56313    0.625    0.625    Hf
H       0.5686   0.1105   0.3405     H
H       0.5686   0.1395   0.9095     H
H       0.5686   0.3405   0.1105     H
H       0.5686   0.4095   0.6395     H
H       0.5686   0.6105   0.8405     H
H       0.5686   0.6395   0.4095     H
H       0.5686   0.8405   0.6105     H
H       0.5686   0.9095   0.1395     H
C      0.57489  0.07489   0.9038     C
C      0.57489  0.17511   0.3462     C
C      0.57489   0.3462  0.17511     C
C      0.57489   0.4038  0.57489     C
C      0.57489  0.57489   0.4038     C
C      0.57489  0.67511   0.8462     C
C      0.57489   0.8462  0.67511     C
C      0.57489   0.9038  0.07489     C
O      0.57688  0.03554  0.12415     O
O      0.57688  0.12415  0.03554     O
O      0.57688  0.12585  0.21446     O
O      0.57688  0.21446  0.12585     O
O      0.57688  0.53554  0.62415     O
O      0.57688  0.62415  0.53554     O
O      0.57688  0.62585  0.71446     O
O      0.57688  0.71446  0.62585     O
H       0.5905   0.3186   0.3895     H
H       0.5905   0.3605   0.4314     H
H       0.5905   0.3895   0.3186     H
H       0.5905   0.4314   0.3605     H
H       0.5905   0.8186   0.8895     H
H       0.5905   0.8605   0.9314     H
H       0.5905   0.8895   0.8186     H
H       0.5905   0.9314   0.8605     H
O      0.59118  0.09118  0.15882     O
O      0.59118  0.15882  0.09118     O
O      0.59118  0.59118  0.65882     O
O      0.59118  0.65882  0.59118     O
C      0.59165  0.11672   0.3417     C
C      0.59165  0.13328   0.9083     C
C      0.59165   0.3417  0.11672     C
C      0.59165   0.4083  0.63328     C
C      0.59165  0.61672   0.8417     C
C      0.59165  0.63328   0.4083     C
C      0.59165   0.8417  0.61672     C
C      0.59165   0.9083  0.13328     C
C       0.5917  0.34165  0.38328     C
C       0.5917  0.36672  0.40835     C
C       0.5917  0.38328  0.34165     C
C       0.5917  0.40835  0.36672     C
C       0.5917  0.84165  0.88328     C
C       0.5917  0.86672  0.90835     C
C       0.5917  0.88328  0.84165     C
C       0.5917  0.90835  0.86672     C
C       0.5934  0.35036  0.35036     C
C       0.5934  0.39964  0.39964     C
C       0.5934  0.85036  0.85036     C
C       0.5934  0.89964  0.89964     C
C       0.5962  0.32489  0.32489     C
C       0.5962  0.42511  0.42511     C
C       0.5962  0.82489  0.82489     C
C       0.5962  0.92511  0.92511     C
O      0.59668  0.09668  0.09668     O
O      0.59668  0.15332  0.15332     O
O      0.59668  0.59668  0.59668     O
O      0.59668  0.65332  0.65332     O
C      0.60036  0.10036   0.9066     C
C      0.60036  0.14964   0.3434     C
C      0.60036   0.3434  0.14964     C
C      0.60036   0.4066  0.60036     C
C      0.60036  0.60036   0.4066     C
C      0.60036  0.64964   0.8434     C
C      0.60036   0.8434  0.64964     C
C      0.60036   0.9066  0.10036     C
C        0.601  0.30372  0.30372     C
C        0.601  0.44628  0.44628     C
C        0.601  0.80372  0.80372     C
C        0.601  0.94628  0.94628     C
H       0.6042   0.0118   0.9398     H
H       0.6042   0.2382   0.3102     H
H       0.6042   0.3102   0.2382     H
H       0.6042   0.4398   0.5118     H
H       0.6042   0.5118   0.4398     H
H       0.6042   0.7382   0.8102     H
H       0.6042   0.8102   0.7382     H
H       0.6042   0.9398   0.0118     H
C       0.6063  0.27878  0.27878     C
C       0.6063  0.47122  0.47122     C
C       0.6063  0.77878  0.77878     C
C       0.6063  0.97122  0.97122     C
C      0.60766  0.00539  0.96252     C
C      0.60766  0.24461  0.28748     C
C      0.60766  0.28748  0.24461     C
C      0.60766  0.46252  0.50539     C
C      0.60766  0.50539  0.46252     C
C      0.60766  0.74461  0.78748     C
C      0.60766  0.78748  0.74461     C
C      0.60766  0.96252  0.00539     C
H       0.6105   0.0686   0.3405     H
H       0.6105   0.1814   0.9095     H
H       0.6105   0.3405   0.0686     H
H       0.6105   0.4095   0.6814     H
H       0.6105   0.5686   0.8405     H
H       0.6105   0.6814   0.4095     H
H       0.6105   0.8405   0.5686     H
H       0.6105   0.9095   0.1814     H
C      0.61396  0.02979  0.98642     C
C      0.61396  0.22021  0.26358     C
C      0.61396  0.26358  0.22021     C
C      0.61396  0.48642  0.52979     C
C      0.61396  0.52979  0.48642     C
C      0.61396  0.72021  0.76358     C
C      0.61396  0.76358  0.72021     C
C      0.61396  0.98642  0.02979     C
H       0.6161   0.0527   0.9802     H
H       0.6161   0.1973   0.2698     H
H       0.6161   0.2698   0.1973     H
H       0.6161   0.4802   0.5527     H
H       0.6161   0.5527   0.4802     H
H       0.6161   0.6973   0.7698     H
H       0.6161   0.7698   0.6973     H
H       0.6161   0.9802   0.0527     H
C      0.61672  0.09165   0.3417     C
C      0.61672  0.15835   0.9083     C
C      0.61672   0.3417  0.09165     C
C      0.61672   0.4083  0.65835     C
C      0.61672  0.59165   0.8417     C
C      0.61672  0.65835   0.4083     C
C      0.61672   0.8417  0.59165     C
C      0.61672   0.9083  0.15835     C
C      0.61713  0.01994  0.01994     C
C      0.61713  0.23006  0.23006     C
C      0.61713  0.51994  0.51994     C
C      0.61713  0.73006  0.73006     C
C      0.62155  0.04627  0.04627     C
C      0.62155  0.20373  0.20373     C
C      0.62155  0.54627  0.54627     C
C      0.62155  0.70373  0.70373     C
O      0.62415  0.03554  0.07688     O
O      0.62415  0.07688  0.03554     O
O      0.62415  0.17312  0.21446     O
O      0.62415  0.21446  0.17312     O
O      0.62415  0.53554  0.57688     O
O      0.62415  0.57688  0.53554     O
O      0.62415  0.67312  0.71446     O
O      0.62415  0.71446  0.67312     O
Hf       0.625  0.06313    0.125    Hf
Hf       0.625    0.125  0.06313    Hf
Hf       0.625    0.125  0.18687    Hf
Hf       0.625  0.18687    0.125    Hf
Hf       0.625  0.56313    0.625    Hf
Hf       0.625    0.625  0.56313    Hf
Hf       0.625    0.625  0.68687    Hf
Hf       0.625  0.68687    0.625    Hf
O      0.62585  0.03554  0.17312     O
O      0.62585  0.07688  0.21446     O
O      0.62585  0.17312  0.03554     O
O      0.62585  0.21446  0.07688     O
O      0.62585  0.53554  0.67312     O
O      0.62585  0.57688  0.71446     O
O      0.62585  0.67312  0.53554     O
O      0.62585  0.71446  0.57688     O
C      0.62845  0.04627  0.20373     C
C      0.62845  0.20373  0.04627     C
C      0.62845  0.54627  0.70373     C
C      0.62845  0.70373  0.54627     C
C      0.63287  0.01994  0.23006     C
C      0.63287  0.23006  0.01994     C
C      0.63287  0.51994  0.73006     C
C      0.63287  0.73006  0.51994     C
C      0.63328  0.09165   0.9083     C
C      0.63328  0.15835   0.3417     C
C      0.63328   0.3417  0.15835     C
C      0.63328   0.4083  0.59165     C
C      0.63328  0.59165   0.4083     C
C      0.63328  0.65835   0.8417     C
C      0.63328   0.8417  0.65835     C
C      0.63328   0.9083  0.09165     C
H       0.6339   0.0527   0.2698     H
H       0.6339   0.1973   0.9802     H
H       0.6339   0.2698   0.0527     H
H       0.6339   0.4802   0.6973     H
H       0.6339   0.5527   0.7698     H
H       0.6339   0.6973   0.4802     H
H       0.6339   0.7698   0.5527     H
H       0.6339   0.9802   0.1973     H
C      0.63604  0.02979  0.26358     C
C      0.63604  0.22021  0.98642     C
C      0.63604  0.26358  0.02979     C
C      0.63604  0.48642  0.72021     C
C      0.63604  0.52979  0.76358     C
C      0.63604  0.72021  0.48642     C
C      0.63604  0.76358  0.52979     C
C      0.63604  0.98642  0.22021     C
H       0.6395   0.0686   0.9095     H
H       0.6395   0.1814   0.3405     H
H       0.6395   0.3405   0.1814     H
H       0.6395   0.4095   0.5686     H
H       0.6395   0.5686   0.4095     H
H       0.6395   0.6814   0.8405     H
H       0.6395   0.8405   0.6814     H
H       0.6395   0.9095   0.0686     H
C      0.64234  0.00539  0.28748     C
C      0.64234  0.24461  0.96252     C
C      0.64234  0.28748  0.00539     C
C      0.64234  0.46252  0.74461     C
C      0.64234  0.50539  0.78748     C
C      0.64234  0.74461  0.46252     C
C      0.64234  0.78748  0.50539     C
C      0.64234  0.96252  0.24461     C
C       0.6437  0.27878  0.97122     C
C       0.6437  0.47122  0.77878     C
C       0.6437  0.77878  0.47122     C
C       0.6437  0.97122  0.27878     C
H       0.6458   0.0118   0.3102     H
H       0.6458   0.2382   0.9398     H
H       0.6458   0.3102   0.0118     H
H       0.6458   0.4398   0.7382     H
H       0.6458   0.5118   0.8102     H
H       0.6458   0.7382   0.4398     H
H       0.6458   0.8102   0.5118     H
H       0.6458   0.9398   0.2382     H
C        0.649  0.30372  0.94628     C
C        0.649  0.44628  0.80372     C
C        0.649  0.80372  0.44628     C
C        0.649  0.94628  0.30372     C
C      0.64964  0.10036   0.3434     C
C      0.64964  0.14964   0.9066     C
C      0.64964   0.3434  0.10036     C
C      0.64964   0.4066  0.64964     C
C      0.64964  0.60036   0.8434     C
C      0.64964  0.64964   0.4066     C
C      0.64964   0.8434  0.60036     C
C      0.64964   0.9066  0.14964     C
O      0.65332  0.09668  0.15332     O
O      0.65332  0.15332  0.09668     O
O      0.65332  0.59668  0.65332     O
O      0.65332  0.65332  0.59668     O
C       0.6538  0.32489  0.92511     C
C       0.6538  0.42511  0.82489     C
C       0.6538  0.82489  0.42511     C
C       0.6538  0.92511  0.32489     C
C       0.6566  0.35036  0.89964     C
C       0.6566  0.39964  0.85036     C
C       0.6566  0.85036  0.39964     C
C       0.6566  0.89964  0.35036     C
C       0.6583  0.34165  0.86672     C
C       0.6583  0.36672  0.84165     C
C       0.6583  0.38328  0.90835     C
C       0.6583  0.40835  0.88328     C
C       0.6583  0.84165  0.36672     C
C       0.6583  0.86672  0.34165     C
C       0.6583  0.88328  0.40835     C
C       0.6583  0.90835  0.38328     C
C      0.65835  0.11672   0.9083     C
C      0.65835  0.13328   0.3417     C
C      0.65835   0.3417  0.13328     C
C      0.65835   0.4083  0.61672     C
C      0.65835  0.61672   0.4083     C
C      0.65835  0.63328   0.8417     C
C      0.65835   0.8417  0.63328     C
C      0.65835   0.9083  0.11672     C
O      0.65882  0.09118  0.09118     O
O      0.65882  0.15882  0.15882     O
O      0.65882  0.59118  0.59118     O
O      0.65882  0.65882  0.65882     O
H       0.6595   0.3186   0.8605     H
H       0.6595   0.3605   0.8186     H
H       0.6595   0.3895   0.9314     H
H       0.6595   0.4314   0.8895     H
H       0.6595   0.8186   0.3605     H
H       0.6595   0.8605   0.3186     H
H       0.6595   0.8895   0.4314     H
H       0.6595   0.9314   0.3895     H
O      0.67312  0.03554  0.12585     O
O      0.67312  0.12415  0.21446     O
O      0.67312  0.12585  0.03554     O
O      0.67312  0.21446  0.12415     O
O      0.67312  0.53554  0.62585     O
O      0.67312  0.62415  0.71446     O
O      0.67312  0.62585  0.53554     O
O      0.67312  0.71446  0.62415     O
C      0.67511  0.07489   0.3462     C
C      0.67511  0.17511   0.9038     C
C      0.67511   0.3462  0.07489     C
C      0.67511   0.4038  0.67511     C
C      0.67511  0.57489   0.8462     C
C      0.67511  0.67511   0.4038     C
C      0.67511   0.8462  0.57489     C
C      0.67511   0.9038  0.17511     C
H       0.6814   0.1105   0.9095     H
H       0.6814   0.1395   0.3405     H
H       0.6814   0.3405   0.1395     H
H       0.6814   0.4095   0.6105     H
H       0.6814   0.6105   0.4095     H
H       0.6814   0.6395   0.8405     H
H       0.6814   0.8405   0.6395     H
H       0.6814   0.9095   0.1105     H
Hf     0.68687    0.125    0.125    Hf
Hf     0.68687    0.625    0.625    Hf
H       0.6898   0.2618   0.8958     H
H       0.6898   0.3542   0.9882     H
H       0.6898   0.3958   0.7618     H
H       0.6898   0.4882   0.8542     H
H       0.6898   0.7618   0.3958     H
H       0.6898   0.8542   0.4882     H
H       0.6898   0.8958   0.2618     H
H       0.6898   0.9882   0.3542     H
C      0.69628  0.05372    0.351     C
C      0.69628  0.19628    0.899     C
C      0.69628    0.351  0.05372     C
C      0.69628    0.399  0.69628     C
C      0.69628  0.55372    0.851     C
C      0.69628  0.69628    0.399     C
C      0.69628    0.851  0.55372     C
C      0.69628    0.899  0.19628     C
H       0.6973   0.1161   0.2698     H
H       0.6973   0.1339   0.9802     H
H       0.6973   0.2698   0.1161     H
H       0.6973   0.4802   0.6339     H
H       0.6973   0.6161   0.7698     H
H       0.6973   0.6339   0.4802     H
H       0.6973   0.7698   0.6161     H
H       0.6973   0.9802   0.1339     H
C      0.70373  0.04627  0.12845     C
C      0.70373  0.12155  0.20373     C
C      0.70373  0.12845  0.04627     C
C      0.70373  0.20373  0.12155     C
C      0.70373  0.54627  0.62845     C
C      0.70373  0.62155  0.70373     C
C      0.70373  0.62845  0.54627     C
C      0.70373  0.70373  0.62155     C
C      0.71252  0.25539  0.89234     C
C      0.71252  0.35766  0.99461     C
C      0.71252  0.39234  0.75539     C
C      0.71252  0.49461  0.85766     C
C      0.71252  0.75539  0.39234     C
C      0.71252  0.85766  0.49461     C
C      0.71252  0.89234  0.25539     C
C      0.71252  0.99461  0.35766     C
O      0.71446  0.07688  0.12585     O
O      0.71446  0.12415  0.17312     O
O      0.71446  0.12585  0.07688     O
O      0.71446  0.17312  0.12415     O
O      0.71446  0.57688  0.62585     O
O      0.71446  0.62415  0.67312     O
O      0.71446  0.62585  0.57688     O
O      0.71446  0.67312  0.62415     O
C      0.72021  0.11396  0.26358     C
C      0.72021  0.13604  0.98642     C
C      0.72021  0.26358  0.11396     C
C      0.72021  0.48642  0.63604     C
C      0.72021  0.61396  0.76358     C
C      0.72021  0.63604  0.48642     C
C      0.72021  0.76358  0.61396     C
C      0.72021  0.98642  0.13604     C
C      0.72122  0.02878   0.3563     C
C      0.72122  0.22122   0.8937     C
C      0.72122   0.3563  0.02878     C
C      0.72122   0.3937  0.72122     C
C      0.72122  0.52878   0.8563     C
C      0.72122  0.72122   0.3937     C
C      0.72122   0.8563  0.52878     C
C      0.72122   0.8937  0.22122     C
C      0.73006  0.01994  0.13287     C
C      0.73006  0.11713  0.23006     C
C      0.73006  0.13287  0.01994     C
C      0.73006  0.23006  0.11713     C
C      0.73006  0.51994  0.63287     C
C      0.73006  0.61713  0.73006     C
C      0.73006  0.63287  0.51994     C
C      0.73006  0.73006  0.61713     C
H       0.7302   0.3027   0.8839     H
H       0.7302   0.3661   0.9473     H
H       0.7302   0.3839   0.8027     H
H       0.7302   0.4473   0.8661     H
H       0.7302   0.8027   0.3839     H
H       0.7302   0.8661   0.4473     H
H       0.7302   0.8839   0.3027     H
H       0.7302   0.9473   0.3661     H
C      0.73642  0.27979  0.88604     C
C      0.73642  0.36396  0.97021     C
C      0.73642  0.38604  0.77979     C
C      0.73642  0.47021  0.86396     C
C      0.73642  0.77979  0.38604     C
C      0.73642  0.86396  0.47021     C
C      0.73642  0.88604  0.27979     C
C      0.73642  0.97021  0.36396     C
H       0.7382   0.1042   0.3102     H
H       0.7382   0.1458   0.9398     H
H       0.7382   0.3102   0.1042     H
H       0.7382   0.4398   0.6458     H
H       0.7382   0.6042   0.8102     H
H       0.7382   0.6458   0.4398     H
H       0.7382   0.8102   0.6042     H
H       0.7382   0.9398   0.1458     H
C      0.74461  0.10766  0.28748     C
C      0.74461  0.14234  0.96252     C
C      0.74461  0.28748  0.10766     C
C      0.74461  0.46252  0.64234     C
C      0.74461  0.60766  0.78748     C
C      0.74461  0.64234  0.46252     C
C      0.74461  0.78748  0.60766     C
C      0.74461  0.96252  0.14234     C
C      0.75539  0.03748  0.35766     C
C      0.75539  0.21252  0.89234     C
C      0.75539  0.35766  0.03748     C
C      0.75539  0.39234  0.71252     C
C      0.75539  0.53748  0.85766     C
C      0.75539  0.71252  0.39234     C
C      0.75539  0.85766  0.53748     C
C      0.75539  0.89234  0.21252     C
H       0.7618   0.0602   0.3542     H
H       0.7618   0.1898   0.8958     H
H       0.7618   0.3542   0.0602     H
H       0.7618   0.3958   0.6898     H
H       0.7618   0.5602   0.8542     H
H       0.7618   0.6898   0.3958     H
H       0.7618   0.8542   0.5602     H
H       0.7618   0.8958   0.1898     H
C      0.76358  0.02979  0.13604     C
C      0.76358  0.11396  0.22021     C
C      0.76358  0.13604  0.02979     C
C      0.76358  0.22021  0.11396     C
C      0.76358  0.52979  0.63604     C
C      0.76358  0.61396  0.72021     C
C      0.76358  0.63604  0.52979     C
C      0.76358  0.72021  0.61396     C
H       0.7698   0.0527   0.1339     H
H       0.7698   0.1161   0.1973     H
H       0.7698   0.1339   0.0527     H
H       0.7698   0.1973   0.1161     H
H       0.7698   0.5527   0.6339     H
H       0.7698   0.6161   0.6973     H
H       0.7698   0.6339   0.5527     H
H       0.7698   0.6973   0.6161     H
C      0.76994  0.26994  0.88287     C
C      0.76994  0.36713  0.98006     C
C      0.76994  0.38287  0.76994     C
C      0.76994  0.48006  0.86713     C
C      0.76994  0.76994  0.38287     C
C      0.76994  0.86713  0.48006     C
C      0.76994  0.88287  0.26994     C
C      0.76994  0.98006  0.36713     C
C      0.77878   0.1063  0.27878     C
C      0.77878   0.1437  0.97122     C
C      0.77878  0.27878   0.1063     C
C      0.77878  0.47122   0.6437     C
C      0.77878   0.6063  0.77878     C
C      0.77878   0.6437  0.47122     C
C      0.77878  0.77878   0.6063     C
C      0.77878  0.97122   0.1437     C
C      0.77979  0.01358  0.36396     C
C      0.77979  0.23642  0.88604     C
C      0.77979  0.36396  0.01358     C
C      0.77979  0.38604  0.73642     C
C      0.77979  0.51358  0.86396     C
C      0.77979  0.73642  0.38604     C
C      0.77979  0.86396  0.51358     C
C      0.77979  0.88604  0.23642     C
O      0.78554  0.32688  0.87585     O
O      0.78554  0.37415  0.92312     O
O      0.78554  0.37585  0.82688     O
O      0.78554  0.42312  0.87415     O
O      0.78554  0.82688  0.37585     O
O      0.78554  0.87415  0.42312     O
O      0.78554  0.87585  0.32688     O
O      0.78554  0.92312  0.37415     O
C      0.78748  0.00539  0.14234     C
C      0.78748  0.10766  0.24461     C
C      0.78748  0.14234  0.00539     C
C      0.78748  0.24461  0.10766     C
C      0.78748  0.50539  0.64234     C
C      0.78748  0.60766  0.74461     C
C      0.78748  0.64234  0.50539     C
C      0.78748  0.74461  0.60766     C
C      0.79627  0.29627  0.87845     C
C      0.79627  0.37155  0.95373     C
C      0.79627  0.37845  0.79627     C
C      0.79627  0.45373  0.87155     C
C      0.79627  0.79627  0.37845     C
C      0.79627  0.87155  0.45373     C
C      0.79627  0.87845  0.29627     C
C      0.79627  0.95373  0.37155     C
H       0.8027   0.0198   0.3661     H
H       0.8027   0.2302   0.8839     H
H       0.8027   0.3661   0.0198     H
H       0.8027   0.3839   0.7302     H
H       0.8027   0.5198   0.8661     H
H       0.8027   0.7302   0.3839     H
H       0.8027   0.8661   0.5198     H
H       0.8027   0.8839   0.2302     H
C      0.80372    0.101  0.30372     C
C      0.80372    0.149  0.94628     C
C      0.80372  0.30372    0.101     C
C      0.80372  0.44628    0.649     C
C      0.80372    0.601  0.80372     C
C      0.80372    0.649  0.44628     C
C      0.80372  0.80372    0.601     C
C      0.80372  0.94628    0.149     C
H       0.8102   0.0118   0.1458     H
H       0.8102   0.1042   0.2382     H
H       0.8102   0.1458   0.0118     H
H       0.8102   0.2382   0.1042     H
H       0.8102   0.5118   0.6458     H
H       0.8102   0.6042   0.7382     H
H       0.8102   0.6458   0.5118     H
H       0.8102   0.7382   0.6042     H
Hf     0.81313    0.375    0.875    Hf
Hf     0.81313    0.875    0.375    Hf
H       0.8186   0.0905   0.3895     H
H       0.8186   0.1595   0.8605     H
H       0.8186   0.3605   0.6595     H
H       0.8186   0.3895   0.0905     H
H       0.8186   0.5905   0.8895     H
H       0.8186   0.6595   0.3605     H
H       0.8186   0.8605   0.1595     H
H       0.8186   0.8895   0.5905     H
C      0.82489   0.0962  0.32489     C
C      0.82489   0.1538  0.92511     C
C      0.82489  0.32489   0.0962     C
C      0.82489  0.42511   0.6538     C
C      0.82489   0.5962  0.82489     C
C      0.82489   0.6538  0.42511     C
C      0.82489  0.82489   0.5962     C
C      0.82489  0.92511   0.1538     C
O      0.82688  0.28554  0.87585     O
O      0.82688  0.37415  0.96446     O
O      0.82688  0.37585  0.78554     O
O      0.82688  0.46446  0.87415     O
O      0.82688  0.78554  0.37585     O
O      0.82688  0.87415  0.46446     O
O      0.82688  0.87585  0.28554     O
O      0.82688  0.96446  0.37415     O
H       0.8405   0.0686   0.1105     H
H       0.8405   0.1105   0.0686     H
H       0.8405   0.1395   0.1814     H
H       0.8405   0.1814   0.1395     H
H       0.8405   0.5686   0.6105     H
H       0.8405   0.6105   0.5686     H
H       0.8405   0.6395   0.6814     H
H       0.8405   0.6814   0.6395     H
O      0.84118  0.34118  0.84118     O
O      0.84118  0.40882  0.90882     O
O      0.84118  0.84118  0.34118     O
O      0.84118  0.90882  0.40882     O
C      0.84165   0.0917  0.38328     C
C      0.84165   0.1583  0.86672     C
C      0.84165  0.36672   0.6583     C
C      0.84165  0.38328   0.0917     C
C      0.84165   0.5917  0.88328     C
C      0.84165   0.6583  0.36672     C
C      0.84165  0.86672   0.1583     C
C      0.84165  0.88328   0.5917     C
C       0.8417  0.09165  0.11672     C
C       0.8417  0.11672  0.09165     C
C       0.8417  0.13328  0.15835     C
C       0.8417  0.15835  0.13328     C
C       0.8417  0.59165  0.61672     C
C       0.8417  0.61672  0.59165     C
C       0.8417  0.63328  0.65835     C
C       0.8417  0.65835  0.63328     C
C       0.8434  0.10036  0.14964     C
C       0.8434  0.14964  0.10036     C
C       0.8434  0.60036  0.64964     C
C       0.8434  0.64964  0.60036     C
C       0.8462  0.07489  0.17511     C
C       0.8462  0.17511  0.07489     C
C       0.8462  0.57489  0.67511     C
C       0.8462  0.67511  0.57489     C
O      0.84668  0.34668  0.90332     O
O      0.84668  0.40332  0.84668     O
O      0.84668  0.84668  0.40332     O
O      0.84668  0.90332  0.34668     O
C      0.85036   0.0934  0.35036     C
C      0.85036   0.1566  0.89964     C
C      0.85036  0.35036   0.0934     C
C      0.85036  0.39964   0.6566     C
C      0.85036   0.5934  0.85036     C
C      0.85036   0.6566  0.39964     C
C      0.85036  0.85036   0.5934     C
C      0.85036  0.89964   0.1566     C
C        0.851  0.05372  0.19628     C
C        0.851  0.19628  0.05372     C
C        0.851  0.55372  0.69628     C
C        0.851  0.69628  0.55372     C
H       0.8542   0.0602   0.2618     H
H       0.8542   0.1898   0.9882     H
H       0.8542   0.2618   0.0602     H
H       0.8542   0.4882   0.6898     H
H       0.8542   0.5602   0.7618     H
H       0.8542   0.6898   0.4882     H
H       0.8542   0.7618   0.5602     H
H       0.8542   0.9882   0.1898     H
C       0.8563  0.02878  0.22122     C
C       0.8563  0.22122  0.02878     C
C       0.8563  0.52878  0.72122     C
C       0.8563  0.72122  0.52878     C
C      0.85766  0.03748  0.25539     C
C      0.85766  0.21252  0.99461     C
C      0.85766  0.25539  0.03748     C
C      0.85766  0.49461  0.71252     C
C      0.85766  0.53748  0.75539     C
C      0.85766  0.71252  0.49461     C
C      0.85766  0.75539  0.53748     C
C      0.85766  0.99461  0.21252     C
H       0.8605   0.0905   0.4314     H
H       0.8605   0.1595   0.8186     H
H       0.8605   0.3186   0.6595     H
H       0.8605   0.4314   0.0905     H
H       0.8605   0.5905   0.9314     H
H       0.8605   0.6595   0.3186     H
H       0.8605   0.8186   0.1595     H
H       0.8605   0.9314   0.5905     H
C      0.86396  0.01358  0.27979     C
C      0.86396  0.23642  0.97021     C
C      0.86396  0.27979  0.01358     C
C      0.86396  0.47021  0.73642     C
C      0.86396  0.51358  0.77979     C
C      0.86396  0.73642  0.47021     C
C      0.86396  0.77979  0.51358     C
C      0.86396  0.97021  0.23642     C
H       0.8661   0.0198   0.3027     H
H       0.8661   0.2302   0.9473     H
H       0.8661   0.3027   0.0198     H
H       0.8661   0.4473   0.7302     H
H       0.8661   0.5198   0.8027     H
H       0.8661   0.7302   0.4473     H
H       0.8661   0.8027   0.5198     H
H       0.8661   0.9473   0.2302     H
C      0.86672   0.0917  0.40835     C
C      0.86672   0.1583  0.84165     C
C      0.86672  0.34165   0.6583     C
C      0.86672  0.40835   0.0917     C
C      0.86672   0.5917  0.90835     C
C      0.86672   0.6583  0.34165     C
C      0.86672  0.84165   0.1583     C
C      0.86672  0.90835   0.5917     C
C      0.86713  0.26994  0.98006     C
C      0.86713  0.48006  0.76994     C
C      0.86713  0.76994  0.48006     C
C      0.86713  0.98006  0.26994     C
C      0.87155  0.29627  0.95373     C
C      0.87155  0.45373  0.79627     C
C      0.87155  0.79627  0.45373     C
C      0.87155  0.95373  0.29627     C
O      0.87415  0.28554  0.92312     O
O      0.87415  0.32688  0.96446     O
O      0.87415  0.42312  0.78554     O
O      0.87415  0.46446  0.82688     O
O      0.87415  0.78554  0.42312     O
O      0.87415  0.82688  0.46446     O
O      0.87415  0.92312  0.28554     O
O      0.87415  0.96446  0.32688     O
Hf       0.875  0.31313    0.875    Hf
Hf       0.875    0.375  0.81313    Hf
Hf       0.875    0.375  0.93687    Hf
Hf       0.875  0.43687    0.875    Hf
Hf       0.875  0.81313    0.375    Hf
Hf       0.875    0.875  0.31313    Hf
Hf       0.875    0.875  0.43687    Hf
Hf       0.875  0.93687    0.375    Hf
O      0.87585  0.28554  0.82688     O
O      0.87585  0.32688  0.78554     O
O      0.87585  0.42312  0.96446     O
O      0.87585  0.46446  0.92312     O
O      0.87585  0.78554  0.32688     O
O      0.87585  0.82688  0.28554     O
O      0.87585  0.92312  0.46446     O
O      0.87585  0.96446  0.42312     O
C      0.87845  0.29627  0.79627     C
C      0.87845  0.45373  0.95373     C
C      0.87845  0.79627  0.29627     C
C      0.87845  0.95373  0.45373     C
C      0.88287  0.26994  0.76994     C
C      0.88287  0.48006  0.98006     C
C      0.88287  0.76994  0.26994     C
C      0.88287  0.98006  0.48006     C
C      0.88328   0.0917  0.34165     C
C      0.88328   0.1583  0.90835     C
C      0.88328  0.34165   0.0917     C
C      0.88328  0.40835   0.6583     C
C      0.88328   0.5917  0.84165     C
C      0.88328   0.6583  0.40835     C
C      0.88328  0.84165   0.5917     C
C      0.88328  0.90835   0.1583     C
H       0.8839   0.0198   0.4473     H
H       0.8839   0.2302   0.8027     H
H       0.8839   0.3027   0.7302     H
H       0.8839   0.4473   0.0198     H
H       0.8839   0.5198   0.9473     H
H       0.8839   0.7302   0.3027     H
H       0.8839   0.8027   0.2302     H
H       0.8839   0.9473   0.5198     H
C      0.88604  0.01358  0.47021     C
C      0.88604  0.23642  0.77979     C
C      0.88604  0.27979  0.73642     C
C      0.88604  0.47021  0.01358     C
C      0.88604  0.51358  0.97021     C
C      0.88604  0.73642  0.27979     C
C      0.88604  0.77979  0.23642     C
C      0.88604  0.97021  0.51358     C
H       0.8895   0.0905   0.3186     H
H       0.8895   0.1595   0.9314     H
H       0.8895   0.3186   0.0905     H
H       0.8895   0.4314   0.6595     H
H       0.8895   0.5905   0.8186     H
H       0.8895   0.6595   0.4314     H
H       0.8895   0.8186   0.5905     H
H       0.8895   0.9314   0.1595     H
C      0.89234  0.03748  0.49461     C
C      0.89234  0.21252  0.75539     C
C      0.89234  0.25539  0.71252     C
C      0.89234  0.49461  0.03748     C
C      0.89234  0.53748  0.99461     C
C      0.89234  0.71252  0.25539     C
C      0.89234  0.75539  0.21252     C
C      0.89234  0.99461  0.53748     C
C       0.8937  0.02878  0.52878     C
C       0.8937  0.22122  0.72122     C
C       0.8937  0.52878  0.02878     C
C       0.8937  0.72122  0.22122     C
H       0.8958   0.0602   0.4882     H
H       0.8958   0.1898   0.7618     H
H       0.8958   0.2618   0.6898     H
H       0.8958   0.4882   0.0602     H
H       0.8958   0.5602   0.9882     H
H       0.8958   0.6898   0.2618     H
H       0.8958   0.7618   0.1898     H
H       0.8958   0.9882   0.5602     H
C        0.899  0.05372  0.55372     C
C        0.899  0.19628  0.69628     C
C        0.899  0.55372  0.05372     C
C        0.899  0.69628  0.19628     C
C      0.89964   0.0934  0.39964     C
C      0.89964   0.1566  0.85036     C
C      0.89964  0.35036   0.6566     C
C      0.89964  0.39964   0.0934     C
C      0.89964   0.5934  0.89964     C
C      0.89964   0.6566  0.35036     C
C      0.89964  0.85036   0.1566     C
C      0.89964  0.89964   0.5934     C
O      0.90332  0.34668  0.84668     O
O      0.90332  0.40332  0.90332     O
O      0.90332  0.84668  0.34668     O
O      0.90332  0.90332  0.40332     O
C       0.9038  0.07489  0.57489     C
C       0.9038  0.17511  0.67511     C
C       0.9038  0.57489  0.07489     C
C       0.9038  0.67511  0.17511     C
C       0.9066  0.10036  0.60036     C
C       0.9066  0.14964  0.64964     C
C       0.9066  0.60036  0.10036     C
C       0.9066  0.64964  0.14964     C
C       0.9083  0.09165  0.63328     C
C       0.9083  0.11672  0.65835     C
C       0.9083  0.13328  0.59165     C
C       0.9083  0.15835  0.61672     C
C       0.9083  0.59165  0.13328     C
C       0.9083  0.61672  0.15835     C
C       0.9083  0.63328  0.09165     C
C       0.9083  0.65835  0.11672     C
C      0.90835   0.0917  0.36672     C
C      0.90835   0.1583  0.88328     C
C      0.90835  0.36672   0.0917     C
C      0.90835  0.38328   0.6583     C
C      0.90835   0.5917  0.86672     C
C      0.90835   0.6583  0.38328     C
C      0.90835  0.86672   0.5917     C
C      0.90835  0.88328   0.1583     C
O      0.90882  0.34118  0.90882     O
O      0.90882  0.40882  0.84118     O
O      0.90882  0.84118  0.40882     O
O      0.90882  0.90882  0.34118     O
H       0.9095   0.0686   0.6395     H
H       0.9095   0.1105   0.6814     H
H       0.9095   0.1395   0.5686     H
H       0.9095   0.1814   0.6105     H
H       0.9095   0.5686   0.1395     H
H       0.9095   0.6105   0.1814     H
H       0.9095   0.6395   0.0686     H
H       0.9095   0.6814   0.1105     H
O      0.92312  0.28554  0.87415     O
O      0.92312  0.37415  0.78554     O
O      0.92312  0.37585  0.96446     O
O      0.92312  0.46446  0.87585     O
O      0.92312  0.78554  0.37415     O
O      0.92312  0.87415  0.28554     O
O      0.92312  0.87585  0.46446     O
O      0.92312  0.96446  0.37585     O
C      0.92511   0.0962  0.42511     C
C      0.92511   0.1538  0.82489     C
C      0.92511  0.32489   0.6538     C
C      0.92511  0.42511   0.0962     C
C      0.92511   0.5962  0.92511     C
C      0.92511   0.6538  0.32489     C
C      0.92511  0.82489   0.1538     C
C      0.92511  0.92511   0.5962     C
H       0.9314   0.0905   0.3605     H
H       0.9314   0.1595   0.8895     H
H       0.9314   0.3605   0.0905     H
H       0.9314   0.3895   0.6595     H
H       0.9314   0.5905   0.8605     H
H       0.9314   0.6595   0.3895     H
H       0.9314   0.8605   0.5905     H
H       0.9314   0.8895   0.1595     H
Hf     0.93687    0.375    0.875    Hf
Hf     0.93687    0.875    0.375    Hf
H       0.9398   0.0118   0.6042     H
H       0.9398   0.1042   0.5118     H
H       0.9398   0.1458   0.7382     H
H       0.9398   0.2382   0.6458     H
H       0.9398   0.5118   0.1042     H
H       0.9398   0.6042   0.0118     H
H       0.9398   0.6458   0.2382     H
H       0.9398   0.7382   0.1458     H
C      0.94628    0.101  0.44628     C
C      0.94628    0.149  0.80372     C
C      0.94628  0.30372    0.649     C
C      0.94628  0.44628    0.101     C
C      0.94628    0.601  0.94628     C
C      0.94628    0.649  0.30372     C
C      0.94628  0.80372    0.149     C
C      0.94628  0.94628    0.601     C
H       0.9473   0.0198   0.3839     H
H       0.9473   0.2302   0.8661     H
H       0.9473   0.3661   0.7302     H
H       0.9473   0.3839   0.0198     H
H       0.9473   0.5198   0.8839     H
H       0.9473   0.7302   0.3661     H
H       0.9473   0.8661   0.2302     H
H       0.9473   0.8839   0.5198     H
C      0.95373  0.29627  0.87155     C
C      0.95373  0.37155  0.79627     C
C      0.95373  0.37845  0.95373     C
C      0.95373  0.45373  0.87845     C
C      0.95373  0.79627  0.37155     C
C      0.95373  0.87155  0.29627     C
C      0.95373  0.87845  0.45373     C
C      0.95373  0.95373  0.37845     C
C      0.96252  0.00539  0.60766     C
C      0.96252  0.10766  0.50539     C
C      0.96252  0.14234  0.74461     C
C      0.96252  0.24461  0.64234     C
C      0.96252  0.50539  0.10766     C
C      0.96252  0.60766  0.00539     C
C      0.96252  0.64234  0.24461     C
C      0.96252  0.74461  0.14234     C
O      0.96446  0.32688  0.87415     O
O      0.96446  0.37415  0.82688     O
O      0.96446  0.37585  0.92312     O
O      0.96446  0.42312  0.87585     O
O      0.96446  0.82688  0.37415     O
O      0.96446  0.87415  0.32688     O
O      0.96446  0.87585  0.42312     O
O      0.96446  0.92312  0.37585     O
C      0.97021  0.01358  0.38604     C
C      0.97021  0.23642  0.86396     C
C      0.97021  0.36396  0.73642     C
C      0.97021  0.38604  0.01358     C
C      0.97021  0.51358  0.88604     C
C      0.97021  0.73642  0.36396     C
C      0.97021  0.86396  0.23642     C
C      0.97021  0.88604  0.51358     C
C      0.97122   0.1063  0.47122     C
C      0.97122   0.1437  0.77878     C
C      0.97122  0.27878   0.6437     C
C      0.97122  0.47122   0.1063     C
C      0.97122   0.6063  0.97122     C
C      0.97122   0.6437  0.27878     C
C      0.97122  0.77878   0.1437     C
C      0.97122  0.97122   0.6063     C
C      0.98006  0.26994  0.86713     C
C      0.98006  0.36713  0.76994     C
C      0.98006  0.38287  0.98006     C
C      0.98006  0.48006  0.88287     C
C      0.98006  0.76994  0.36713     C
C      0.98006  0.86713  0.26994     C
C      0.98006  0.88287  0.48006     C
C      0.98006  0.98006  0.38287     C
H       0.9802   0.0527   0.6161     H
H       0.9802   0.1161   0.5527     H
H       0.9802   0.1339   0.6973     H
H       0.9802   0.1973   0.6339     H
H       0.9802   0.5527   0.1161     H
H       0.9802   0.6161   0.0527     H
H       0.9802   0.6339   0.1973     H
H       0.9802   0.6973   0.1339     H
C      0.98642  0.02979  0.61396     C
C      0.98642  0.11396  0.52979     C
C      0.98642  0.13604  0.72021     C
C      0.98642  0.22021  0.63604     C
C      0.98642  0.52979  0.11396     C
C      0.98642  0.61396  0.02979     C
C      0.98642  0.63604  0.22021     C
C      0.98642  0.72021  0.13604     C
H       0.9882   0.0602   0.3958     H
H       0.9882   0.1898   0.8542     H
H       0.9882   0.3542   0.6898     H
H       0.9882   0.3958   0.0602     H
H       0.9882   0.5602   0.8958     H
H       0.9882   0.6898   0.3542     H
H       0.9882   0.8542   0.1898     H
H       0.9882   0.8958   0.5602     H
C      0.99461  0.03748  0.39234     C
C      0.99461  0.21252  0.85766     C
C      0.99461  0.35766  0.71252     C
C      0.99461  0.39234  0.03748     C
C      0.99461  0.53748  0.89234     C
C      0.99461  0.71252  0.35766     C
C      0.99461  0.85766  0.21252     C
C      0.99461  0.89234  0.53748     C
