data_I
_chemical_name_common  '/home/zhangsd/repos/MofS-CGCNN/ML/data/WS24/clean_cifs/WUTBEU'
_cell_length_a 15.61520
_cell_length_b 15.61520
_cell_length_c  7.49630
_cell_angle_alpha 90.00000
_cell_angle_beta  90.00000
_cell_angle_gamma 90.00000
_space_group_name_H-M_alt      'P 1'


loop_
_space_group_symop_operation_xyz
  'x, y, z' 

loop_
_atom_site_label
_atom_site_fract_x
_atom_site_fract_y
_atom_site_fract_z
_atom_site_type_symbol
Zr         0.0      0.0     0.25    Zr
Zr         0.0      0.0     0.75    Zr
O          0.0  0.06643      0.5     O
C          0.0   0.1433      0.5     C
O          0.0  0.14618  0.18923     O
O          0.0  0.14618  0.81077     O
C          0.0   0.1878  0.33942     C
C          0.0   0.1878  0.66058     C
C          0.0  0.27682  0.33942     C
C          0.0  0.27682  0.66058     C
H          0.0   0.3066  0.23198     H
H          0.0   0.3066  0.76802     H
C          0.0  0.32133      0.5     C
C          0.0  0.41547      0.5     C
N          0.0  0.45773   0.3475     N
N          0.0  0.45773   0.6525     N
N          0.0  0.54227   0.3475     N
N          0.0  0.54227   0.6525     N
C          0.0  0.58453      0.5     C
C          0.0  0.67867      0.5     C
H          0.0   0.6934  0.23198     H
H          0.0   0.6934  0.76802     H
C          0.0  0.72318  0.33942     C
C          0.0  0.72318  0.66058     C
C          0.0   0.8122  0.33942     C
C          0.0   0.8122  0.66058     C
O          0.0  0.85382  0.18923     O
O          0.0  0.85382  0.81077     O
C          0.0   0.8567      0.5     C
O          0.0  0.93357      0.5     O
O      0.06643      0.0      0.0     O
C       0.1433      0.0      0.0     C
O      0.14618      0.0  0.31077     O
O      0.14618      0.0  0.68923     O
C       0.1878      0.0  0.16058     C
C       0.1878      0.0  0.83942     C
C      0.27682      0.0  0.16058     C
C      0.27682      0.0  0.83942     C
H       0.3066      0.0  0.26802     H
H       0.3066      0.0  0.73198     H
C      0.32133      0.0      0.0     C
C      0.41547      0.0      0.0     C
N      0.45773      0.0   0.1525     N
N      0.45773      0.0   0.8475     N
N      0.54227      0.0   0.1525     N
N      0.54227      0.0   0.8475     N
C      0.58453      0.0      0.0     C
C      0.67867      0.0      0.0     C
H       0.6934      0.0  0.26802     H
H       0.6934      0.0  0.73198     H
C      0.72318      0.0  0.16058     C
C      0.72318      0.0  0.83942     C
C       0.8122      0.0  0.16058     C
C       0.8122      0.0  0.83942     C
O      0.85382      0.0  0.31077     O
O      0.85382      0.0  0.68923     O
C       0.8567      0.0      0.0     C
O      0.93357      0.0      0.0     O
