data_I
_chemical_name_common  '/home/zhangsd/repos/MofS-CGCNN/ML/data/WS24/clean_cifs/XACFAJ'
_cell_length_a 11.52800
_cell_length_b 11.52800
_cell_length_c 15.16800
_cell_angle_alpha 90.00000
_cell_angle_beta  90.00000
_cell_angle_gamma 120.00000
_space_group_name_H-M_alt      'P 1'


loop_
_space_group_symop_operation_xyz
  'x, y, z' 

loop_
_atom_site_label
_atom_site_fract_x
_atom_site_fract_y
_atom_site_fract_z
_atom_site_type_symbol
P          0.0      0.0  0.23164     P
Zn         0.0      0.0   0.3889    Zn
P          0.0      0.0  0.73164     P
Zn         0.0      0.0   0.8889    Zn
O       0.0094    0.849   0.9482     O
H       0.0137   0.8151   0.1816     H
H       0.0328    0.765   0.7271     H
O       0.0621   0.2536   0.8655     O
H       0.0631   0.1582   0.1184     H
C       0.0631   0.2699   0.2237     C
O       0.0664   0.4158   0.1121     O
C       0.0771   0.9105   0.1798     C
H       0.0788     0.66   0.9249     H
C       0.0895   0.1666   0.1798     C
H       0.0951   0.9369   0.1184     H
H       0.0982   0.2861   0.2833     H
C       0.1158   0.8533   0.9194     C
C       0.1276   0.4009    0.173     C
H       0.1301   0.7355   0.0151     H
H       0.1319   0.4776   0.9471     H
C       0.1426   0.7448   0.9517     C
C       0.1467   0.2625   0.9194     C
O        0.151   0.1604   0.9482     O
H       0.1582   0.0951   0.6184     H
O       0.1604   0.0094   0.4482     O
C       0.1666   0.0771   0.6798     C
H       0.1849   0.1986   0.1816     H
H       0.1879   0.9018   0.2833     H
O       0.1915   0.9379   0.8655     O
H       0.1986   0.0137   0.6816     H
C       0.2068   0.9369   0.2237     C
C       0.2233   0.5069   0.9292     C
H       0.2282   0.5189   0.8657     H
H        0.235   0.2678   0.7271     H
O       0.2435   0.7543   0.1952     O
O       0.2457   0.4892   0.1952     O
O       0.2536   0.1915   0.3655     O
C       0.2552   0.3978   0.9517     C
C       0.2625   0.1158   0.4194     C
H       0.2645   0.3946   0.0151     H
H       0.2678   0.0328   0.2271     H
C       0.2699   0.2068   0.7237     C
C       0.2733   0.8724    0.173     C
C       0.2836   0.7767   0.9292     C
H       0.2861   0.1879   0.7833     H
H       0.2907   0.7718   0.8657     H
Zn     0.33333  0.66667  0.13592    Zn
P      0.33333  0.66667  0.98052     P
H         0.34   0.4188   0.9249     H
H       0.3457   0.8681   0.9471     H
O       0.3494   0.9336   0.1121     O
H       0.3946   0.1301   0.5151     H
C       0.3978   0.1426   0.4517     C
C       0.4009   0.2733    0.673     C
O       0.4158   0.3494   0.6121     O
H       0.4188   0.0788   0.4249     H
H       0.4776   0.3457   0.4471     H
H       0.4811   0.7093   0.8657     H
O       0.4892   0.2435   0.6952     O
C       0.4931   0.7164   0.9292     C
C       0.5069   0.2836   0.4292     C
O       0.5108   0.7565   0.1952     O
H       0.5189   0.2907   0.3657     H
H       0.5224   0.6543   0.9471     H
H       0.5812   0.9212   0.9249     H
O       0.5842   0.6506   0.1121     O
C       0.5991   0.7267    0.173     C
C       0.6022   0.8574   0.9517     C
H       0.6054   0.8699   0.0151     H
O       0.6506   0.0664   0.6121     O
H       0.6543   0.1319   0.4471     H
H         0.66   0.5812   0.4249     H
P      0.66667  0.33333  0.48052     P
Zn     0.66667  0.33333  0.63592    Zn
H       0.7093   0.2282   0.3657     H
H       0.7139   0.8121   0.2833     H
C       0.7164   0.2233   0.4292     C
C       0.7267   0.1276    0.673     C
C       0.7301   0.7932   0.2237     C
H       0.7322   0.9672   0.7271     H
H       0.7355   0.6054   0.5151     H
C       0.7375   0.8842   0.9194     C
C       0.7448   0.6022   0.4517     C
O       0.7464   0.8085   0.8655     O
O       0.7543   0.5108   0.6952     O
O       0.7565   0.2457   0.6952     O
H        0.765   0.7322   0.2271     H
H       0.7718   0.4811   0.3657     H
C       0.7767   0.4931   0.4292     C
C       0.7932   0.0631   0.7237     C
H       0.8014   0.9863   0.1816     H
O       0.8085   0.0621   0.3655     O
H       0.8121   0.0982   0.7833     H
H       0.8151   0.8014   0.6816     H
C       0.8334   0.9229   0.1798     C
O       0.8396   0.9906   0.9482     O
H       0.8418   0.9049   0.1184     H
O        0.849   0.8396   0.4482     O
C       0.8533   0.7375   0.4194     C
C       0.8574   0.2552   0.4517     C
H       0.8681   0.5224   0.4471     H
H       0.8699   0.2645   0.5151     H
C       0.8724   0.5991    0.673     C
C       0.8842   0.1467   0.4194     C
H       0.9018   0.7139   0.7833     H
H       0.9049   0.0631   0.6184     H
C       0.9105   0.8334   0.6798     C
H       0.9212     0.34   0.4249     H
C       0.9229   0.0895   0.6798     C
O       0.9336   0.5842   0.6121     O
C       0.9369   0.7301   0.7237     C
H       0.9369   0.8418   0.6184     H
O       0.9379   0.7464   0.3655     O
H       0.9672    0.235   0.2271     H
H       0.9863   0.1849   0.6816     H
O       0.9906    0.151   0.4482     O
