data_I
_chemical_name_common  '/home/zhangsd/repos/MofS-CGCNN/ML/data/WS24/clean_cifs/XANZAQ'
_cell_length_a 21.24010
_cell_length_b  7.21640
_cell_length_c 15.24930
_cell_angle_alpha 90.00000
_cell_angle_beta  90.00000
_cell_angle_gamma 90.00000
_space_group_name_H-M_alt      'P 1'


loop_
_space_group_symop_operation_xyz
  'x, y, z' 

loop_
_atom_site_label
_atom_site_fract_x
_atom_site_fract_y
_atom_site_fract_z
_atom_site_type_symbol
Cu         0.0      0.0      0.5    Cu
Cu         0.0      0.5      0.5    Cu
N      0.06639   0.1549  0.56002     N
N      0.06639   0.3451  0.56002     N
N      0.06639   0.6549  0.43998     N
N      0.06639   0.8451  0.43998     N
C      0.11341   0.1002  0.60905     C
C      0.11341   0.3998  0.60905     C
C      0.11341   0.6002  0.39095     C
C      0.11341   0.8998  0.39095     C
H        0.124   0.0225   0.3796     H
H        0.124   0.4775   0.3796     H
H        0.124   0.5225   0.6204     H
H        0.124   0.9775   0.6204     H
N       0.1441     0.25   0.6405     N
N       0.1441     0.75   0.3595     N
H       0.1637   0.0602   0.7815     H
H       0.1637   0.4398   0.7815     H
H       0.1637   0.5602   0.2185     H
H       0.1637   0.9398   0.2185     H
C      0.19893     0.25   0.6974     C
C      0.19893     0.75   0.3026     C
C       0.1995    0.136   0.7679     C
C       0.1995    0.364   0.7679     C
C       0.1995    0.636   0.2321     C
C       0.1995    0.864   0.2321     C
H       0.2445   0.0559   0.6276     H
H       0.2445   0.4441   0.6276     H
H       0.2445   0.5559   0.3724     H
H       0.2445   0.9441   0.3724     H
C       0.2476   0.1382   0.6769     C
C       0.2476   0.3618   0.6769     C
C       0.2476   0.6382   0.3231     C
C       0.2476   0.8618   0.3231     C
C       0.2524   0.1382   0.8231     C
C       0.2524   0.3618   0.8231     C
C       0.2524   0.6382   0.1769     C
C       0.2524   0.8618   0.1769     C
H       0.2555   0.0559   0.8724     H
H       0.2555   0.4441   0.8724     H
H       0.2555   0.5559   0.1276     H
H       0.2555   0.9441   0.1276     H
C       0.3005    0.136   0.7321     C
C       0.3005    0.364   0.7321     C
C       0.3005    0.636   0.2679     C
C       0.3005    0.864   0.2679     C
C      0.30107     0.25   0.8026     C
C      0.30107     0.75   0.1974     C
H       0.3363   0.0602   0.7185     H
H       0.3363   0.4398   0.7185     H
H       0.3363   0.5602   0.2815     H
H       0.3363   0.9398   0.2815     H
N       0.3559     0.25   0.8595     N
N       0.3559     0.75   0.1405     N
H        0.376   0.0225   0.1204     H
H        0.376   0.4775   0.1204     H
H        0.376   0.5225   0.8796     H
H        0.376   0.9775   0.8796     H
C      0.38659   0.1002  0.89095     C
C      0.38659   0.3998  0.89095     C
C      0.38659   0.6002  0.10905     C
C      0.38659   0.8998  0.10905     C
N      0.43361   0.1549  0.93998     N
N      0.43361   0.3451  0.93998     N
N      0.43361   0.6549  0.06002     N
N      0.43361   0.8451  0.06002     N
Cu         0.5      0.0      0.0    Cu
Cu         0.5      0.5      0.0    Cu
N      0.56639   0.1549  0.93998     N
N      0.56639   0.3451  0.93998     N
N      0.56639   0.6549  0.06002     N
N      0.56639   0.8451  0.06002     N
C      0.61341   0.1002  0.89095     C
C      0.61341   0.3998  0.89095     C
C      0.61341   0.6002  0.10905     C
C      0.61341   0.8998  0.10905     C
H        0.624   0.0225   0.1204     H
H        0.624   0.4775   0.1204     H
H        0.624   0.5225   0.8796     H
H        0.624   0.9775   0.8796     H
N       0.6441     0.25   0.8595     N
N       0.6441     0.75   0.1405     N
H       0.6637   0.0602   0.7185     H
H       0.6637   0.4398   0.7185     H
H       0.6637   0.5602   0.2815     H
H       0.6637   0.9398   0.2815     H
C      0.69893     0.25   0.8026     C
C      0.69893     0.75   0.1974     C
C       0.6995    0.136   0.7321     C
C       0.6995    0.364   0.7321     C
C       0.6995    0.636   0.2679     C
C       0.6995    0.864   0.2679     C
H       0.7445   0.0559   0.8724     H
H       0.7445   0.4441   0.8724     H
H       0.7445   0.5559   0.1276     H
H       0.7445   0.9441   0.1276     H
C       0.7476   0.1382   0.8231     C
C       0.7476   0.3618   0.8231     C
C       0.7476   0.6382   0.1769     C
C       0.7476   0.8618   0.1769     C
C       0.7524   0.1382   0.6769     C
C       0.7524   0.3618   0.6769     C
C       0.7524   0.6382   0.3231     C
C       0.7524   0.8618   0.3231     C
H       0.7555   0.0559   0.6276     H
H       0.7555   0.4441   0.6276     H
H       0.7555   0.5559   0.3724     H
H       0.7555   0.9441   0.3724     H
C       0.8005    0.136   0.7679     C
C       0.8005    0.364   0.7679     C
C       0.8005    0.636   0.2321     C
C       0.8005    0.864   0.2321     C
C      0.80107     0.25   0.6974     C
C      0.80107     0.75   0.3026     C
H       0.8363   0.0602   0.7815     H
H       0.8363   0.4398   0.7815     H
H       0.8363   0.5602   0.2185     H
H       0.8363   0.9398   0.2185     H
N       0.8559     0.25   0.6405     N
N       0.8559     0.75   0.3595     N
H        0.876   0.0225   0.3796     H
H        0.876   0.4775   0.3796     H
H        0.876   0.5225   0.6204     H
H        0.876   0.9775   0.6204     H
C      0.88659   0.1002  0.60905     C
C      0.88659   0.3998  0.60905     C
C      0.88659   0.6002  0.39095     C
C      0.88659   0.8998  0.39095     C
N      0.93361   0.1549  0.56002     N
N      0.93361   0.3451  0.56002     N
N      0.93361   0.6549  0.43998     N
N      0.93361   0.8451  0.43998     N
