data_I
_chemical_name_common  '/home/zhangsd/repos/MofS-CGCNN/ML/data/WS24/clean_cifs/XAPGED'
_cell_length_a 27.00830
_cell_length_b 27.01210
_cell_length_c 27.81610
_cell_angle_alpha 90.00000
_cell_angle_beta  90.00000
_cell_angle_gamma 90.00000
_space_group_name_H-M_alt      'P 1'


loop_
_space_group_symop_operation_xyz
  'x, y, z' 

loop_
_atom_site_label
_atom_site_fract_x
_atom_site_fract_y
_atom_site_fract_z
_atom_site_type_symbol
Zn     0.00528  0.05948  0.47299    Zn
Zn     0.00528  0.44052  0.97299    Zn
O      0.01086  0.15324  0.53752     O
O      0.01086  0.34676  0.03752     O
O      0.02281  0.12426  0.44626     O
O      0.02281  0.37574  0.94626     O
O      0.02926  0.05712     0.54     O
O      0.02926  0.44288     0.04     O
Mo     0.03542  0.18576   0.4854    Mo
Mo     0.03542  0.31424   0.9854    Mo
Mo     0.04685  0.11027  0.58439    Mo
Mo     0.04685  0.38973  0.08439    Mo
O       0.0507  0.07137  0.36917     O
O       0.0507  0.42863  0.86917     O
O      0.05166  0.01124  0.44485     O
O      0.05166  0.48876  0.94485     O
Mo     0.05952   0.1362  0.38438    Mo
Mo     0.05952   0.3638  0.88438    Mo
O      0.06337  0.53595  0.02932     O
O      0.06337  0.96405  0.52932     O
Mo     0.07449  0.01719  0.57904    Mo
Mo     0.07449  0.48281  0.07904    Mo
O      0.07684   0.2272  0.51853     O
O      0.07684   0.2728  0.01853     O
O      0.08156   0.1892  0.42962     O
O      0.08156   0.3108  0.92962     O
O       0.0849  0.17394  0.60447     O
O       0.0849  0.32606  0.10447     O
Mo     0.09319  0.01417  0.38721    Mo
Mo     0.09319  0.48583  0.88721    Mo
Mo     0.10071  0.53703  0.96678    Mo
Mo     0.10071  0.96297  0.46678    Mo
O      0.10648  0.23139   0.8462     O
O      0.10648  0.26861   0.3462     O
O      0.10703  0.07609  0.60614     O
O      0.10703  0.42391  0.10614     O
O      0.11708  0.14416  0.35047     O
O      0.11708  0.35584  0.85047     O
H       0.1296   0.1827   0.7713     H
H       0.1296   0.3173   0.2713     H
O      0.13278  0.14879   0.6882     O
O      0.13278  0.35121   0.1882     O
Mo     0.13509  0.20681   0.5578    Mo
Mo     0.13509  0.29319   0.0578    Mo
O      0.14108  0.51464   0.0922     O
O      0.14108  0.98536   0.5922     O
C       0.1411  0.20836  0.86203     C
C       0.1411  0.29164  0.36203     C
O      0.14725  0.04499  0.34317     O
O      0.14725  0.45501  0.84317     O
Zn     0.14737  0.21709  0.42955    Zn
Zn     0.14737  0.28291  0.92955    Zn
O      0.15043  0.51426  0.92034     O
O      0.15043  0.98574  0.42034     O
C      0.15244   0.1607  0.78606     C
C      0.15244   0.3393  0.28606     C
O      0.16133   0.5566    0.005     O
O      0.16133   0.9434    0.505     O
C       0.1626  0.16513    0.835     C
C       0.1626  0.33487    0.335     C
O      0.16383  0.21932  0.90189     O
O      0.16383  0.28068  0.40189     O
C      0.16571  0.12203  0.70541     C
C      0.16571  0.37797  0.20541     C
O      0.17218   0.2148  0.49739     O
O      0.17218   0.2852  0.99739     O
C       0.1756  0.12409  0.75854     C
C       0.1756  0.37591  0.25854     C
Zn     0.17837  0.09015  0.61323    Zn
Zn     0.17837  0.40985  0.11323    Zn
O      0.18103  0.15754  0.58456     O
O      0.18103  0.34246  0.08456     O
Mo     0.18169  0.11074  0.36212    Mo
Mo     0.18169  0.38926  0.86212    Mo
C      0.19261  0.13018  0.85719     C
C      0.19261  0.36982  0.35719     C
Mo     0.19293  0.51985  0.05095    Mo
Mo     0.19293  0.98015  0.55095    Mo
O       0.1933  0.09245  0.68137     O
O       0.1933  0.40755  0.18137     O
O      0.19585  0.16853  0.40264     O
O      0.19585  0.33147  0.90264     O
H       0.1983   0.1321   0.8908     H
H       0.1983   0.3679   0.3908     H
C      0.20738  0.09076  0.78077     C
C      0.20738  0.40924  0.28077     C
O      0.20976  0.58581  0.46734     O
O      0.20976  0.91419  0.96734     O
C      0.21448  0.09224  0.83048     C
C      0.21448  0.40776  0.33048     C
O      0.21908  0.04526  0.57532     O
O      0.21908  0.45474  0.07532     O
Zn       0.221  0.00155  0.43001    Zn
Zn       0.221  0.49845  0.93001    Zn
H       0.2244   0.0668    0.762     H
H       0.2244   0.4332    0.262     H
Mo     0.22535   0.1835  0.53512    Mo
Mo     0.22535   0.3165  0.03512    Mo
O      0.22567    0.067  0.39867     O
O      0.22567    0.433  0.89867     O
O      0.22804  0.52523  0.83116     O
O      0.22804  0.97477  0.33116     O
Mo     0.22891  0.56581  0.52734    Mo
Mo     0.22891  0.93419  0.02734    Mo
O      0.23054  0.62721   0.5548     O
O      0.23054  0.87279   0.0548     O
O      0.23494  0.68432  0.47163     O
O      0.23494  0.81568  0.97163     O
O      0.23632  0.00794  0.49805     O
O      0.23632  0.49206  0.99805     O
O       0.2416   0.0521  0.90108     O
O       0.2416   0.4479  0.40108     O
C      0.24561  0.05335  0.85463     C
C      0.24561  0.44665  0.35463     C
Mo     0.24618  0.62938  0.42145    Mo
Mo     0.24618  0.87062  0.92145    Mo
Mo     0.25382  0.12938  0.42145    Mo
Mo     0.25382  0.37062  0.92145    Mo
C      0.25439  0.55335  0.85463     C
C      0.25439  0.94665  0.35463     C
O       0.2584   0.5521  0.90108     O
O       0.2584   0.9479  0.40108     O
O      0.26368  0.50794  0.49805     O
O      0.26368  0.99206  0.99805     O
O      0.26506  0.18432  0.47163     O
O      0.26506  0.31568  0.97163     O
O      0.26946  0.12721   0.5548     O
O      0.26946  0.37279   0.0548     O
Mo     0.27109  0.06581  0.52734    Mo
Mo     0.27109  0.43419  0.02734    Mo
O      0.27196  0.02523  0.83116     O
O      0.27196  0.47477  0.33116     O
O      0.27433    0.567  0.39867     O
O      0.27433    0.933  0.89867     O
Mo     0.27465   0.6835  0.53512    Mo
Mo     0.27465   0.8165  0.03512    Mo
H       0.2756   0.5668    0.762     H
H       0.2756   0.9332    0.262     H
Zn       0.279  0.50155  0.43001    Zn
Zn       0.279  0.99845  0.93001    Zn
O      0.28092  0.54526  0.57532     O
O      0.28092  0.95474  0.07532     O
C      0.28552  0.59224  0.83048     C
C      0.28552  0.90776  0.33048     C
O      0.29024  0.08581  0.46734     O
O      0.29024  0.41419  0.96734     O
C      0.29262  0.59076  0.78077     C
C      0.29262  0.90924  0.28077     C
H       0.3017   0.6321   0.8908     H
H       0.3017   0.8679   0.3908     H
O      0.30415  0.66853  0.40264     O
O      0.30415  0.83147  0.90264     O
O       0.3067  0.59245  0.68137     O
O       0.3067  0.90755  0.18137     O
Mo     0.30707  0.01985  0.05095    Mo
Mo     0.30707  0.48015  0.55095    Mo
C      0.30739  0.63018  0.85719     C
C      0.30739  0.86982  0.35719     C
Mo     0.31831  0.61074  0.36212    Mo
Mo     0.31831  0.88926  0.86212    Mo
O      0.31897  0.65754  0.58456     O
O      0.31897  0.84246  0.08456     O
Zn     0.32163  0.59015  0.61323    Zn
Zn     0.32163  0.90985  0.11323    Zn
C       0.3244  0.62409  0.75854     C
C       0.3244  0.87591  0.25854     C
O      0.32782   0.7148  0.49739     O
O      0.32782   0.7852  0.99739     O
C      0.33429  0.62203  0.70541     C
C      0.33429  0.87797  0.20541     C
O      0.33617  0.71932  0.90189     O
O      0.33617  0.78068  0.40189     O
C       0.3374  0.66513    0.835     C
C       0.3374  0.83487    0.335     C
O      0.33867   0.0566    0.005     O
O      0.33867   0.4434    0.505     O
C      0.34756   0.6607  0.78606     C
C      0.34756   0.8393  0.28606     C
O      0.34957  0.01426  0.92034     O
O      0.34957  0.48574  0.42034     O
Zn     0.35263  0.71709  0.42955    Zn
Zn     0.35263  0.78291  0.92955    Zn
O      0.35275  0.54499  0.34317     O
O      0.35275  0.95501  0.84317     O
C       0.3589  0.70836  0.86203     C
C       0.3589  0.79164  0.36203     C
O      0.35892  0.01464   0.0922     O
O      0.35892  0.48536   0.5922     O
Mo     0.36491  0.70681   0.5578    Mo
Mo     0.36491  0.79319   0.0578    Mo
O      0.36722  0.64879   0.6882     O
O      0.36722  0.85121   0.1882     O
H       0.3704   0.6827   0.7713     H
H       0.3704   0.8173   0.2713     H
O      0.38292  0.64416  0.35047     O
O      0.38292  0.85584  0.85047     O
O      0.39297  0.57609  0.60614     O
O      0.39297  0.92391  0.10614     O
O      0.39352  0.73139   0.8462     O
O      0.39352  0.76861   0.3462     O
Mo     0.39929  0.03703  0.96678    Mo
Mo     0.39929  0.46297  0.46678    Mo
Mo     0.40681  0.51417  0.38721    Mo
Mo     0.40681  0.98583  0.88721    Mo
O       0.4151  0.67394  0.60447     O
O       0.4151  0.82606  0.10447     O
O      0.41844   0.6892  0.42962     O
O      0.41844   0.8108  0.92962     O
O      0.42316   0.7272  0.51853     O
O      0.42316   0.7728  0.01853     O
Mo     0.42551  0.51719  0.57904    Mo
Mo     0.42551  0.98281  0.07904    Mo
O      0.43663  0.03595  0.02932     O
O      0.43663  0.46405  0.52932     O
Mo     0.44048   0.6362  0.38438    Mo
Mo     0.44048   0.8638  0.88438    Mo
O      0.44834  0.51124  0.44485     O
O      0.44834  0.98876  0.94485     O
O       0.4493  0.57137  0.36917     O
O       0.4493  0.92863  0.86917     O
Mo     0.45315  0.61027  0.58439    Mo
Mo     0.45315  0.88973  0.08439    Mo
Mo     0.46458  0.68576   0.4854    Mo
Mo     0.46458  0.81424   0.9854    Mo
O      0.47074  0.55712     0.54     O
O      0.47074  0.94288     0.04     O
O      0.47719  0.62426  0.44626     O
O      0.47719  0.87574  0.94626     O
O      0.48914  0.65324  0.53752     O
O      0.48914  0.84676  0.03752     O
Zn     0.49472  0.55948  0.47299    Zn
Zn     0.49472  0.94052  0.97299    Zn
Zn     0.50528  0.05948  0.02701    Zn
Zn     0.50528  0.44052  0.52701    Zn
O      0.51086  0.15324  0.96248     O
O      0.51086  0.34676  0.46248     O
O      0.52281  0.12426  0.05374     O
O      0.52281  0.37574  0.55374     O
O      0.52926  0.05712     0.96     O
O      0.52926  0.44288     0.46     O
Mo     0.53542  0.18576   0.0146    Mo
Mo     0.53542  0.31424   0.5146    Mo
Mo     0.54685  0.11027  0.91561    Mo
Mo     0.54685  0.38973  0.41561    Mo
O       0.5507  0.07137  0.13083     O
O       0.5507  0.42863  0.63083     O
O      0.55166  0.01124  0.05515     O
O      0.55166  0.48876  0.55515     O
Mo     0.55952   0.1362  0.11562    Mo
Mo     0.55952   0.3638  0.61562    Mo
O      0.56337  0.53595  0.47068     O
O      0.56337  0.96405  0.97068     O
Mo     0.57449  0.01719  0.92096    Mo
Mo     0.57449  0.48281  0.42096    Mo
O      0.57684   0.2272  0.98147     O
O      0.57684   0.2728  0.48147     O
O      0.58156   0.1892  0.07038     O
O      0.58156   0.3108  0.57038     O
O       0.5849  0.17394  0.89553     O
O       0.5849  0.32606  0.39553     O
Mo     0.59319  0.01417  0.11279    Mo
Mo     0.59319  0.48583  0.61279    Mo
Mo     0.60071  0.53703  0.53322    Mo
Mo     0.60071  0.96297  0.03322    Mo
O      0.60648  0.23139   0.6538     O
O      0.60648  0.26861   0.1538     O
O      0.60703  0.07609  0.89386     O
O      0.60703  0.42391  0.39386     O
O      0.61708  0.14416  0.14953     O
O      0.61708  0.35584  0.64953     O
H       0.6296   0.1827   0.7287     H
H       0.6296   0.3173   0.2287     H
O      0.63278  0.14879   0.8118     O
O      0.63278  0.35121   0.3118     O
Mo     0.63509  0.20681   0.9422    Mo
Mo     0.63509  0.29319   0.4422    Mo
O      0.64108  0.51464   0.4078     O
O      0.64108  0.98536   0.9078     O
C       0.6411  0.20836  0.63797     C
C       0.6411  0.29164  0.13797     C
O      0.64725  0.04499  0.15683     O
O      0.64725  0.45501  0.65683     O
Zn     0.64737  0.21709  0.07045    Zn
Zn     0.64737  0.28291  0.57045    Zn
O      0.65043  0.51426  0.57966     O
O      0.65043  0.98574  0.07966     O
C      0.65244   0.1607  0.71394     C
C      0.65244   0.3393  0.21394     C
O      0.66133   0.5566    0.495     O
O      0.66133   0.9434    0.995     O
C       0.6626  0.16513    0.665     C
C       0.6626  0.33487    0.165     C
O      0.66383  0.21932  0.59811     O
O      0.66383  0.28068  0.09811     O
C      0.66571  0.12203  0.79459     C
C      0.66571  0.37797  0.29459     C
O      0.67218   0.2148  0.00261     O
O      0.67218   0.2852  0.50261     O
C       0.6756  0.12409  0.74146     C
C       0.6756  0.37591  0.24146     C
Zn     0.67837  0.09015  0.88677    Zn
Zn     0.67837  0.40985  0.38677    Zn
O      0.68103  0.15754  0.91544     O
O      0.68103  0.34246  0.41544     O
Mo     0.68169  0.11074  0.13788    Mo
Mo     0.68169  0.38926  0.63788    Mo
C      0.69261  0.13018  0.64281     C
C      0.69261  0.36982  0.14281     C
Mo     0.69293  0.51985  0.44905    Mo
Mo     0.69293  0.98015  0.94905    Mo
O       0.6933  0.09245  0.81863     O
O       0.6933  0.40755  0.31863     O
O      0.69585  0.16853  0.09736     O
O      0.69585  0.33147  0.59736     O
H       0.6983   0.1321   0.6092     H
H       0.6983   0.3679   0.1092     H
C      0.70738  0.09076  0.71923     C
C      0.70738  0.40924  0.21923     C
O      0.70976  0.58581  0.03266     O
O      0.70976  0.91419  0.53266     O
C      0.71448  0.09224  0.66952     C
C      0.71448  0.40776  0.16952     C
O      0.71908  0.04526  0.92468     O
O      0.71908  0.45474  0.42468     O
Zn       0.721  0.00155  0.06999    Zn
Zn       0.721  0.49845  0.56999    Zn
H       0.7244   0.0668    0.738     H
H       0.7244   0.4332    0.238     H
Mo     0.72535   0.1835  0.96488    Mo
Mo     0.72535   0.3165  0.46488    Mo
O      0.72567    0.067  0.10133     O
O      0.72567    0.433  0.60133     O
O      0.72804  0.52523  0.66884     O
O      0.72804  0.97477  0.16884     O
Mo     0.72891  0.56581  0.97266    Mo
Mo     0.72891  0.93419  0.47266    Mo
O      0.73054  0.62721   0.9452     O
O      0.73054  0.87279   0.4452     O
O      0.73494  0.68432  0.02837     O
O      0.73494  0.81568  0.52837     O
O      0.73632  0.00794  0.00195     O
O      0.73632  0.49206  0.50195     O
O       0.7416   0.0521  0.59892     O
O       0.7416   0.4479  0.09892     O
C      0.74561  0.05335  0.64537     C
C      0.74561  0.44665  0.14537     C
Mo     0.74618  0.62938  0.07855    Mo
Mo     0.74618  0.87062  0.57855    Mo
Mo     0.75382  0.12938  0.07855    Mo
Mo     0.75382  0.37062  0.57855    Mo
C      0.75439  0.55335  0.64537     C
C      0.75439  0.94665  0.14537     C
O       0.7584   0.5521  0.59892     O
O       0.7584   0.9479  0.09892     O
O      0.76368  0.50794  0.00195     O
O      0.76368  0.99206  0.50195     O
O      0.76506  0.18432  0.02837     O
O      0.76506  0.31568  0.52837     O
O      0.76946  0.12721   0.9452     O
O      0.76946  0.37279   0.4452     O
Mo     0.77109  0.06581  0.97266    Mo
Mo     0.77109  0.43419  0.47266    Mo
O      0.77196  0.02523  0.66884     O
O      0.77196  0.47477  0.16884     O
O      0.77433    0.567  0.10133     O
O      0.77433    0.933  0.60133     O
Mo     0.77465   0.6835  0.96488    Mo
Mo     0.77465   0.8165  0.46488    Mo
H       0.7756   0.5668    0.738     H
H       0.7756   0.9332    0.238     H
Zn       0.779  0.50155  0.06999    Zn
Zn       0.779  0.99845  0.56999    Zn
O      0.78092  0.54526  0.92468     O
O      0.78092  0.95474  0.42468     O
C      0.78552  0.59224  0.66952     C
C      0.78552  0.90776  0.16952     C
O      0.79024  0.08581  0.03266     O
O      0.79024  0.41419  0.53266     O
C      0.79262  0.59076  0.71923     C
C      0.79262  0.90924  0.21923     C
H       0.8017   0.6321   0.6092     H
H       0.8017   0.8679   0.1092     H
O      0.80415  0.66853  0.09736     O
O      0.80415  0.83147  0.59736     O
O       0.8067  0.59245  0.81863     O
O       0.8067  0.90755  0.31863     O
Mo     0.80707  0.01985  0.44905    Mo
Mo     0.80707  0.48015  0.94905    Mo
C      0.80739  0.63018  0.64281     C
C      0.80739  0.86982  0.14281     C
Mo     0.81831  0.61074  0.13788    Mo
Mo     0.81831  0.88926  0.63788    Mo
O      0.81897  0.65754  0.91544     O
O      0.81897  0.84246  0.41544     O
Zn     0.82163  0.59015  0.88677    Zn
Zn     0.82163  0.90985  0.38677    Zn
C       0.8244  0.62409  0.74146     C
C       0.8244  0.87591  0.24146     C
O      0.82782   0.7148  0.00261     O
O      0.82782   0.7852  0.50261     O
C      0.83429  0.62203  0.79459     C
C      0.83429  0.87797  0.29459     C
O      0.83617  0.71932  0.59811     O
O      0.83617  0.78068  0.09811     O
C       0.8374  0.66513    0.665     C
C       0.8374  0.83487    0.165     C
O      0.83867   0.0566    0.495     O
O      0.83867   0.4434    0.995     O
C      0.84756   0.6607  0.71394     C
C      0.84756   0.8393  0.21394     C
O      0.84957  0.01426  0.57966     O
O      0.84957  0.48574  0.07966     O
Zn     0.85263  0.71709  0.07045    Zn
Zn     0.85263  0.78291  0.57045    Zn
O      0.85275  0.54499  0.15683     O
O      0.85275  0.95501  0.65683     O
C       0.8589  0.70836  0.63797     C
C       0.8589  0.79164  0.13797     C
O      0.85892  0.01464   0.4078     O
O      0.85892  0.48536   0.9078     O
Mo     0.86491  0.70681   0.9422    Mo
Mo     0.86491  0.79319   0.4422    Mo
O      0.86722  0.64879   0.8118     O
O      0.86722  0.85121   0.3118     O
H       0.8704   0.6827   0.7287     H
H       0.8704   0.8173   0.2287     H
O      0.88292  0.64416  0.14953     O
O      0.88292  0.85584  0.64953     O
O      0.89297  0.57609  0.89386     O
O      0.89297  0.92391  0.39386     O
O      0.89352  0.73139   0.6538     O
O      0.89352  0.76861   0.1538     O
Mo     0.89929  0.03703  0.53322    Mo
Mo     0.89929  0.46297  0.03322    Mo
Mo     0.90681  0.51417  0.11279    Mo
Mo     0.90681  0.98583  0.61279    Mo
O       0.9151  0.67394  0.89553     O
O       0.9151  0.82606  0.39553     O
O      0.91844   0.6892  0.07038     O
O      0.91844   0.8108  0.57038     O
O      0.92316   0.7272  0.98147     O
O      0.92316   0.7728  0.48147     O
Mo     0.92551  0.51719  0.92096    Mo
Mo     0.92551  0.98281  0.42096    Mo
O      0.93663  0.03595  0.47068     O
O      0.93663  0.46405  0.97068     O
Mo     0.94048   0.6362  0.11562    Mo
Mo     0.94048   0.8638  0.61562    Mo
O      0.94834  0.51124  0.05515     O
O      0.94834  0.98876  0.55515     O
O       0.9493  0.57137  0.13083     O
O       0.9493  0.92863  0.63083     O
Mo     0.95315  0.61027  0.91561    Mo
Mo     0.95315  0.88973  0.41561    Mo
Mo     0.96458  0.68576   0.0146    Mo
Mo     0.96458  0.81424   0.5146    Mo
O      0.97074  0.55712     0.96     O
O      0.97074  0.94288     0.46     O
O      0.97719  0.62426  0.05374     O
O      0.97719  0.87574  0.55374     O
O      0.98914  0.65324  0.96248     O
O      0.98914  0.84676  0.46248     O
Zn     0.99472  0.55948  0.02701    Zn
Zn     0.99472  0.94052  0.52701    Zn
