data_I
_chemical_name_common  '/home/zhangsd/repos/MofS-CGCNN/ML/data/WS24/clean_cifs/XAPGIH'
_cell_length_a 18.66287
_cell_length_b 18.66287
_cell_length_c 32.13553
_cell_angle_alpha 98.34196
_cell_angle_beta  100.80478
_cell_angle_gamma 115.30226
_space_group_name_H-M_alt      'P 1'


loop_
_space_group_symop_operation_xyz
  'x, y, z' 

loop_
_atom_site_label
_atom_site_fract_x
_atom_site_fract_y
_atom_site_fract_z
_atom_site_type_symbol
C       0.0019   0.1947   0.3118     C
Mo     0.00382  0.05448  0.12606    Mo
H       0.0044   0.3286   0.6956     H
C       0.0044   0.6964   0.1638     C
Mo     0.00442  0.71425  0.95215    Mo
N       0.0048    0.811    0.291     N
Zn     0.00514   0.7512  0.84732    Zn
H       0.0064   0.5578    0.562     H
H       0.0065   0.4732   0.2683     H
H       0.0075   0.9111   0.6368     H
C        0.009   0.7428    0.366     C
C       0.0098   0.7672   0.7208     C
O      0.01044  0.03751  0.06535     O
O      0.01141  0.24897  0.99638     O
H       0.0143   0.4526   0.6915     H
H       0.0164   0.7449   0.1123     H
N       0.0172   0.6758      0.3     N
C       0.0187   0.1435   0.5964     C
H       0.0197   0.2355   0.6192     H
N         0.02   0.7138    0.209     N
C       0.0214   0.2945   0.6781     C
Ru     0.02284  0.38629  0.76555    Ru
H        0.024   0.0468   0.4266     H
C       0.0242   0.7605   0.1429     C
C       0.0265   0.7015     0.48     C
O      0.02887  0.14394  0.93081     O
O      0.02961  0.32128  0.11349     O
O      0.03195  0.86205   0.8794     O
C       0.0321   0.3914   0.8581     C
C       0.0326   0.8406   0.3362     C
C       0.0333    0.174   0.6419     C
H       0.0352   0.8611   0.6911     H
H       0.0356   0.4351   0.5827     H
H       0.0361   0.8857   0.4224     H
H       0.0367   0.3863   0.9224     H
C       0.0379   0.1261   0.3876     C
H       0.0381   0.3408   0.2621     H
O      0.04266  0.77524   0.4985     O
N       0.0451   0.4452   0.8275     N
H       0.0452   0.8017   0.2377     H
C       0.0454   0.3134    0.284     C
O      0.04546  0.91448  0.00388     O
C       0.0469   0.5371   0.7294     C
C       0.0471   0.4223   0.9036     C
C       0.0484   0.4517   0.4499     C
H       0.0485   0.3719   0.4002     H
O      0.05092  0.10942  0.19034     O
C       0.0539   0.7939   0.2314     C
H       0.0553   0.7964   0.7463     H
Mo     0.05666  0.16931  0.98539    Mo
C       0.0568   0.1009   0.4247     C
C        0.057   0.3753   0.7075     C
C       0.0572   0.8531   0.1627     C
C      0.05908   0.3498  0.54948     C
O      0.06002  0.66571  0.96573     O
Mo     0.06017  0.90979  0.94268    Mo
C       0.0619   0.4487   0.7048     C
C       0.0625   0.8225   0.2686     C
H       0.0637   0.6302   0.6993     H
H        0.064   0.8075   0.2623     H
H       0.0645    0.896   0.1485     H
C       0.0689   0.2394   0.3489     C
H       0.0706   0.1367   0.5497     H
H       0.0726   0.2993   0.6935     H
C       0.0738   0.8559   0.2097     C
O       0.0741  0.67235  0.48445     O
C       0.0755   0.5017   0.9196     C
H        0.076   0.5389   0.5057     H
C       0.0764   0.5207   0.8475     C
C       0.0769   0.4188   0.5811     C
O      0.07884  0.02961  0.87285     O
O      0.07931  0.21063   0.0676     O
O      0.08017  0.81309  0.94826     O
N       0.0803   0.4902   0.7445     N
C       0.0816   0.4101   0.4277     C
C       0.0821   0.1559   0.5804     C
C       0.0844    0.748   0.3888     C
C       0.0858   0.2066   0.3862     C
H        0.087   0.5209   0.9503     H
C       0.0889   0.5997   0.7106     C
C         0.09   0.5602   0.8946     C
C       0.0911   0.6806   0.3223     C
O      0.09138   0.0169  0.13548     O
N       0.0928   0.6196   0.2522     N
H       0.0942   0.5579   0.8299     H
Zn     0.09556  0.02533  0.04129    Zn
O       0.0958  0.26991  0.19751     O
C       0.0967   0.5081   0.4902     C
O      0.09698  0.49602   0.1278     O
H       0.1033   0.9098   0.2285     H
H       0.1042   0.5766   0.1958     H
H       0.1053   0.7725   0.4194     H
H       0.1058   0.3791   0.8065     H
H       0.1059   0.6164   0.9059     H
Cl      0.1059  0.74278  0.82434    Cl
H       0.1096   0.2817   0.5243     H
O      0.10992  0.10507  0.00499     O
O       0.1106  0.37898  0.06498     O
C       0.1117   0.3541   0.3214     C
O      0.11404  0.73841  0.65405     O
H       0.1163   0.4005   0.8808     H
C       0.1164   0.3433   0.8219     C
C       0.1176   0.8813   0.3571     C
N       0.1177   0.2176   0.6725     N
H       0.1192   0.0916   0.6958     H
H       0.1202   0.5974   0.0734     H
Ru     0.12074  0.25729  0.73445    Ru
C       0.1211   0.3281   0.5464     C
N       0.1218   0.3632    0.726     N
C       0.1232    0.357    0.866     C
N      0.12379  0.31815  0.35334     N
N       0.1242   0.2828      0.8     N
C       0.1244   0.1559   0.4589     C
C       0.1291   0.7183    0.368     C
C       0.1293   0.5942   0.2265     C
O      0.13178  0.03082   0.6278     O
C       0.1323   0.0972   0.7265     C
N       0.1326   0.1594   0.7522     N
H       0.1326   0.9041   0.3877     H
Mo      0.1328  0.42686   0.1289    Mo
H        0.133   0.3088   0.8044     H
C       0.1359   0.6504   0.2969     C
N       0.1372   0.3958    0.774     N
C       0.1388   0.5192    0.722     C
H       0.1392   0.1397   0.4845     H
C       0.1408   0.3044   0.8888     C
O      0.14158   0.1769  0.13398     O
C       0.1417   0.2312   0.8223     C
H       0.1441    0.572   0.7215     H
O      0.14567  0.89001  0.63208     O
C       0.1462   0.8641   0.2903     C
C       0.1465    0.161   0.7969     C
H       0.1469   0.3141   0.9194     H
O       0.1478   0.4205   0.1857     O
H       0.1486   0.9963   0.7225     H
C       0.1497   0.2389    0.868     C
H       0.1499   0.4095   0.3244     H
C       0.1501   0.0403   0.7424     C
N      0.15263  0.26061  0.42064     N
Zn     0.15354  0.84285  0.53537    Zn
C       0.1552    0.464   0.6106     C
H       0.1552   0.6547   0.0155     H
Mo     0.15648  0.21116  0.21656    Mo
O      0.15801  0.98412  0.95593     O
N      0.15885  0.42164  0.44349     N
P      0.15983  0.23764  0.10447     P
H       0.1602   0.2025   0.8829     H
C       0.1604   0.5103   0.7425     C
O      0.16187  0.27053  0.00238     O
O      0.16461  0.21867  0.26988     O
C       0.1656   0.1954   0.6054     C
O      0.16574  0.63225  0.59259     O
C       0.1665    0.117   0.8143     C
H       0.1669   0.5107   0.6324     H
C        0.167   0.6166   0.7086     C
C       0.1678   0.3495   0.7925     C
C       0.1699   0.0461   0.7856     C
O      0.17069  0.78441   0.5795     O
C       0.1711   0.2354   0.4557     C
C       0.1732   0.2289   0.6525     C
C       0.1748    0.518    0.507     C
C       0.1762   0.6321   0.0753     C
H       0.1797   0.1259   0.8452     H
H       0.1804   0.7227   0.3829     H
H       0.1813   0.8748   0.2715     H
H       0.1848   0.0092   0.7974     H
O        0.186  0.95438  0.56498     O
C       0.1904   0.8945   0.3373     C
O       0.1909  0.32539  0.13327     O
Mo     0.19216  0.81376  0.64312    Mo
C       0.1922   0.4577   0.7603     C
Zn     0.19252  0.38183  0.03537    Zn
H       0.1961   0.6596   0.6961     H
C        0.197   0.6655   0.0411     C
C       0.1973   0.6478   0.3143     C
C       0.1974   0.4319   0.7397     C
H       0.1985   0.9347   0.8642     H
O      0.19853  0.06971  0.08818     O
C       0.1987   0.3736   0.5751     C
O      0.19998  0.09429  0.53427     O
Mo     0.20204   0.9961   0.6289    Mo
C       0.2021   0.5923   0.2424     C
Mo     0.20214  0.08147  0.15215    Mo
C       0.2032   0.5729   0.7241     C
C       0.2044   0.4739   0.4833     C
C       0.2059   0.5093   0.7396     C
Mo     0.20642  0.36441  0.21443    Mo
H       0.2083   0.5548   0.5347     H
Mo      0.2099   0.1958  0.00056    Mo
H       0.2105      0.2   0.5941     H
O      0.21091  0.13937  0.20568     O
O      0.21627  0.17443   0.9495     O
C      0.21685   0.4405  0.60795     C
H       0.2177   0.2728   0.4795     H
Ru      0.2186  0.37388  0.41066    Ru
H       0.2193   0.6655   0.3452     H
O      0.22326  0.45584   0.9985     O
O      0.22389  0.70589  0.52626     O
O      0.22565  0.40862  0.26707     O
H       0.2257   0.6293   0.1368     H
H       0.2262   0.5739   0.2225     H
O       0.2278  0.23829  0.08269     O
H        0.228   0.2643   0.6701     H
H       0.2298   0.0667   0.9009     H
O      0.23185  0.84051  0.50238     O
Mo      0.2345  0.72621  0.59225    Mo
C       0.2385   0.6503   0.1124     C
O      0.23936  0.01691  0.16467     O
C       0.2395   0.6157   0.2856     C
H       0.2407   0.3587   0.5724     H
H       0.2414   0.6729   0.8579     H
O      0.24207  0.48641  0.13208     O
C       0.2439   0.3571   0.7952     C
N       0.2457   0.3358   0.7555     N
O      0.24741  0.98497  0.49638     O
H       0.2475    0.916   0.3515     H
H       0.2479   0.5538   0.4189     H
H       0.2509    0.742   0.8029     H
O      0.25275  0.89236  0.70451     O
H       0.2528   0.2254   0.3854     H
C       0.2531   0.9783   0.8716     C
H       0.2573   0.5849   0.7224     H
H       0.2574   0.5853   0.9757     H
H       0.2586   0.5558   0.7518     H
H       0.2611   0.3228   0.8085     H
O       0.2619  0.29645  0.21355     O
Mo      0.2621  0.05227  0.54785    Mo
O       0.2652   0.0379   0.6857     O
C       0.2678   0.4179   0.7575     C
O      0.26919  0.14064  0.03003     O
C       0.2697   0.4663   0.7604     C
C       0.2715   0.0555   0.8932     C
O      0.27507  0.73323   0.4495     O
C       0.2785   0.4535     0.98     C
C       0.2797   0.7154   0.0443     C
C       0.2817   0.5747   0.9536     C
O      0.28436  0.78754   0.6535     O
C        0.285   0.6832   0.8446     C
C       0.2854   0.4775   0.4995     C
C        0.286    0.551   0.4036     C
H       0.2863   0.6683   0.9276     H
O      0.28687  0.90194  0.43081     O
N      0.28692   0.4804  0.39352     N
H       0.2882   0.6126   0.2974     H
C       0.2884   0.2658   0.3736     C
C       0.2906   0.7241   0.8119     C
N       0.2908  0.33981  0.37981     N
O      0.29221  0.08388  0.61349     O
H       0.2933   0.7382   0.0205     H
O      0.29509  0.40881   0.0795     O
H       0.2951   0.2618   0.7683     H
C       0.2972   0.4168    0.778     C
C      0.29813   0.4847  0.64163     C
C       0.2985   0.6236   0.9249     C
C      0.30032   0.5096  0.95052     C
N      0.30174  0.42736   0.4719     N
H       0.3029   0.9119   0.8454     H
O      0.30375  0.17886  0.14981     O
H        0.304   0.5068   0.7482     H
Mo     0.30476  0.79066  0.50056    Mo
C       0.3077   0.3175   0.7706     C
O      0.30788  0.94237  0.63327     O
H       0.3084   0.6001   0.6515     H
O      0.30859   0.8123  0.74989     O
Mo      0.3098  0.15575  0.08813    Mo
O       0.3121  0.41035  0.98445     O
O      0.31215  0.45176  0.20451     O
C       0.3149    0.965   0.8607     C
H        0.315   0.3835   0.6421     H
Mo     0.31608  0.92873  0.48539    Mo
O      0.32037  0.30237  0.02626     O
C       0.3204   0.6996   0.1138     C
H       0.3289   0.5603   0.5588     H
Mo     0.32936  0.45096  0.14312    Mo
H         0.33   0.6559   0.1911     H
C      0.33255   0.6089  0.89205     C
H       0.3336   0.1945   0.3469     H
H       0.3342   0.6711   0.4009     H
C       0.3344   0.5689   0.6609     C
C        0.336   0.2471   0.3505     C
O      0.33605  0.71146  0.59891     O
C       0.3377   0.4958   0.9189     C
C       0.3377   0.6217   0.3932     C
C       0.3386   0.4404   0.6554     C
N      0.33997  0.73199  0.07936     N
H         0.34   0.8674   0.1146     H
C       0.3402   0.5238   0.5406     C
C       0.3418   0.3968    0.363     C
C       0.3427   0.4767    0.372     C
C      0.34307   0.6565  0.85837     C
O      0.34324  0.79401  0.37285     O
O       0.3444  0.85489  0.58269     O
Zn     0.34732  0.28707  0.18883    Zn
H       0.3476   0.9867   0.1531     H
C       0.3488   0.4791   0.7759     C
Mo     0.35002  0.00801  0.71443    Mo
H       0.3505   0.4226   0.7785     H
O      0.35224  0.07469  0.33533     O
H       0.3524   0.4529   0.9173     H
C       0.3526   0.1176   0.9036     C
C       0.3534   0.5446   0.8894     C
C      0.35393   0.7396  0.79213     C
C      0.35622   0.7825  0.75652     C
O      0.35697  0.98829   0.5676     O
O      0.35845  0.04142  0.76707     O
H       0.3625   0.5349   0.7776     H
O      0.36483  0.13191  0.55174     O
H       0.3651    0.171   0.9189     H
O      0.36575  0.10455   0.0899     O
O      0.36596  0.36914   0.1535     O
Mo     0.36604  0.35775  0.09225    Mo
P      0.36683  0.94464  0.60447     P
C       0.3711   0.4208   0.4861     C
H       0.3783   0.5345   0.8676     H
O      0.38142   0.9559  0.36452     O
C       0.3829   0.6901   0.1882     C
H        0.383   0.3861   0.4671     H
C       0.3868   0.3042    0.333     C
O      0.38745  0.26286  0.09891     O
C       0.3891   0.3783   0.7894     C
O      0.38939  0.76084  0.53003     O
C       0.3905     0.72   0.1511     C
C       0.3909   0.3803   0.3394     C
C       0.3922   0.9148   0.1264     C
C       0.3933   0.6185   0.3716     C
C       0.3953   0.0293    0.872     C
C       0.3957   0.5458   0.3607     C
C       0.3966   0.9855   0.1495     C
O      0.39992  0.89507  0.50499     O
Zn     0.40176  0.84151  0.68883    Zn
Zn     0.40388  0.15782  0.65268    Zn
H       0.4068   0.9012    0.828     H
C        0.408   0.4584   0.7914     C
C        0.408   0.6735   0.8391     C
O      0.40821  0.78599   0.7346     O
C      0.40872   0.6069  0.69402     C
C       0.4099   0.5163   0.5546     C
O       0.4106  0.04158  0.49612     O
C       0.4122   0.4787   0.6881     C
C      0.41288   0.7147  0.80598     C
N      0.41312   0.1066  0.89352     N
H       0.4149   0.1745   0.8244     H
O      0.41564  0.54001  0.15405     O
O       0.4171  0.95165  0.71355     O
Cl     0.41844  0.28156  0.67566    Cl
H       0.4188   0.2914   0.3164     H
H       0.4188   0.9355   0.9629     H
H        0.419   0.9159   0.0329     H
O      0.41908  0.86058  0.30966     O
H       0.4213    0.224   0.7621     H
C       0.4255   0.4632   0.5275     C
H       0.4268   0.4212    0.328     H
O       0.4276  0.10171  0.69751     O
Mo     0.42842  0.87776  0.37394    Mo
Mo     0.42932  0.04999  0.34785    Mo
H       0.4295   0.6657   0.3642     H
H       0.4309   0.3644   0.8007     H
Mo     0.43238  0.77833  0.58813    Mo
H       0.4332    0.664   0.7072     H
H       0.4335   0.5425   0.3454     H
O      0.43369  0.00523  0.29432     O
C       0.4347    0.885   0.0139     C
C       0.4357    0.898   0.9725     C
O      0.43759   0.4413  0.24989     O
H       0.4391    0.448   0.6971     H
H       0.4474   0.5475   0.5827     H
C      0.44747   0.5618  0.70787     C
H       0.4486   0.6569   0.8485     H
O      0.44861  0.32639   0.2346     O
O      0.44879  0.89473  0.23012     O
H       0.4499    0.691   0.2463     H
C       0.4536    0.711   0.2208     C
N      0.45546  0.82984   0.0281     N
H       0.4568    0.726   0.7928     H
O      0.45708   0.9924  0.63398     O
C       0.4591   0.9485   0.8394     C
N         0.46  0.91099  0.12019     N
O      0.46034  0.42685  0.09259     O
C       0.4617   0.8553   0.9454     C
Ru     0.46322  0.80794  0.08934    Ru
H       0.4635      0.5   0.8039     H
H       0.4648   0.8647   0.9173     H
N      0.46481  0.77045  0.14666     N
C       0.4662   0.0212    0.863     C
H       0.4668   0.4297   0.0057     H
Mo     0.46711  0.11749  0.55732    Mo
C       0.4673   0.2097   0.8214     C
C       0.4706   0.2386    0.784     C
O      0.47095  0.84606  0.64981     O
C       0.4712   0.0538    0.167     C
H       0.4717   0.6483   0.0998     H
O      0.47181  0.79792  0.45593     O
O      0.47216  0.94509  0.43465     O
H       0.4726   0.4559   0.5371     H
C      0.47402   0.4003  0.25652     C
H        0.475   0.1024   0.1836     H
C        0.478   0.7859   0.0005     C
N      0.47815  0.71536  0.05651     N
H       0.4799   0.3264   0.0347     H
O      0.48153  0.11035  0.41182     O
C       0.4821   0.3935   0.9902     C
C       0.4824   0.6539   0.0723     C
O      0.48265  0.15255   0.6206     O
C       0.4832   0.7996   0.9594     C
Zn     0.48404  0.05427  0.45871    Zn
O      0.48535  0.72415   0.5899     O
C        0.489   0.3322    0.007     C
C       0.4906   0.7211   0.0167     C
Mo      0.4946  0.93992  0.28344    Mo
H       0.4958   0.4444    0.938     H
C       0.4982   0.4015   0.9499     C
H       0.4985   0.2299   0.0588     H
H       0.5015   0.7701   0.9412     H
C       0.5018   0.5985   0.0501     C
H       0.5042   0.5556    0.062     H
Mo      0.5054  0.06008  0.71656    Mo
C       0.5094   0.2789   0.9833     C
C        0.511   0.6678    0.993     C
O      0.51465  0.27585   0.4101     O
Zn     0.51596  0.94573  0.54129    Zn
C       0.5168   0.2004   0.0406     C
O      0.51735  0.84745   0.3794     O
C       0.5176   0.3461   0.9277     C
C       0.5179   0.6065   0.0098     C
O      0.51847  0.88965  0.58818     O
H       0.5201   0.6736   0.9653     H
N      0.52185  0.28464  0.94349     N
C        0.522   0.2141   0.9995     C
H        0.525   0.8976   0.8164     H
C      0.52598   0.5997  0.74348     C
H       0.5274   0.5441   0.4629     H
O      0.52784  0.05491  0.56535     O
O      0.52819  0.20208  0.54407     O
H       0.5283   0.3517   0.9002     H
C       0.5288   0.9462    0.833     C
O      0.52905  0.15394  0.35019     O
C       0.5294   0.7614    0.216     C
C       0.5327   0.7903   0.1786     C
Mo     0.53289  0.88251  0.44268    Mo
H       0.5332   0.5703   0.9943     H
C       0.5338   0.9788    0.137     C
N      0.53519  0.22955  0.85334     N
H       0.5352   0.1353   0.0827     H
H       0.5365      0.5   0.1961     H
Ru     0.53678  0.19206  0.91066    Ru
C       0.5383   0.1447   0.0546     C
O      0.53966  0.57315  0.90741     O
N         0.54  0.08901  0.87981     N
C       0.5409   0.0515   0.1606     C
O      0.54292   0.0076  0.36602     O
H       0.5432    0.274   0.2072     H
N      0.54454  0.17016   0.9719     N
C       0.5464    0.289   0.7792     C
H       0.5501    0.309   0.7537     H
O      0.55121  0.10527  0.76988     O
O      0.55139  0.67361   0.7654     O
H       0.5514   0.3431   0.1515     H
C      0.55253   0.4382  0.29213     C
H       0.5526   0.4525   0.4173     H
H       0.5609    0.552   0.3029     H
O      0.56241   0.5587  0.75011     O
C       0.5643    0.102   0.0275     C
C       0.5653    0.115   0.9861     C
O      0.56631  0.99477  0.70568     O
H       0.5665   0.4575   0.6546     H
H       0.5668    0.336   0.2928     H
Mo     0.56762  0.22167  0.41187    Mo
H       0.5691   0.6356   0.1993     H
H       0.5705   0.3343   0.6358     H
Mo     0.57068  0.95001  0.65215    Mo
Mo     0.57158  0.12224  0.62606    Mo
O       0.5724  0.89829  0.30249     O
H       0.5732   0.5788    0.672     H
C       0.5745   0.5368   0.4725     C
H       0.5787    0.776   0.2379     H
O      0.58092  0.13942  0.69034     O
H        0.581   0.0841   0.9671     H
H       0.5812   0.0645   0.0371     H
H       0.5812   0.7086   0.6836     H
Cl     0.58156  0.71844  0.32434    Cl
O       0.5829  0.04835  0.28645     O
O      0.58436  0.45999  0.84595     O
H       0.5851   0.8255   0.1756     H
N      0.58688   0.8934  0.10648     N
C      0.58712   0.2853  0.19402     C
C       0.5878   0.5213   0.3119     C
O       0.5894  0.95842  0.50388     O
C       0.5901   0.4837   0.4454     C
C      0.59128   0.3931  0.30598     C
O      0.59179  0.21401   0.2654     O
C        0.592   0.3265   0.1609     C
C        0.592   0.5416   0.2086     C
H       0.5932   0.0988    0.172     H
Zn     0.59612  0.84218  0.34732    Zn
Zn     0.59824  0.15849  0.31117    Zn
O      0.60008  0.10493  0.49501     O
C       0.6034   0.0145   0.8505     C
C       0.6043   0.4542   0.6393     C
C       0.6047   0.9707    0.128     C
C       0.6067   0.3815   0.6284     C
C       0.6078   0.0852   0.8736     C
C       0.6091   0.6197   0.6606     C
C       0.6095     0.28   0.8489     C
O      0.61061  0.23916  0.46997     O
C       0.6109   0.6217   0.2106     C
O      0.61255  0.73714  0.90109     O
C       0.6132   0.6958    0.667     C
H        0.617   0.6139   0.5329     H
C       0.6171   0.3099   0.8118     C
O      0.61858   0.0441  0.63548     O
H       0.6217   0.4655   0.1324     H
C       0.6289   0.5792   0.5139     C
P      0.63317  0.05536  0.39553     P
Mo     0.63396  0.64225  0.90775    Mo
O      0.63404  0.63086   0.8465     O
O      0.63425  0.89545   0.9101     O
H       0.6349    0.829   0.0811     H
O      0.63517  0.86809  0.44826     O
H       0.6375   0.4651   0.2224     H
O      0.64155  0.95858  0.23293     O
O      0.64303  0.01171   0.4324     O
C      0.64378   0.2175  0.24348     C
C      0.64607   0.2604  0.20787     C
C       0.6466   0.4554   0.1106     C
C       0.6474   0.8824   0.0964     C
H       0.6476   0.5471   0.0827     H
O      0.64776  0.92531  0.66467     O
H       0.6495   0.5774   0.2215     H
Mo     0.64998  0.99199  0.28557    Mo
C       0.6512   0.5209   0.2241     C
H       0.6524   0.0133   0.8469     H
Zn     0.65268  0.71293  0.81117    Zn
O       0.6556  0.14511  0.41731     O
O      0.65676  0.20599  0.62715     O
C      0.65693   0.3435  0.14163     C
C       0.6573   0.5233    0.628     C
C       0.6582   0.6032    0.637     C
C       0.6598   0.4762   0.4594     C
H         0.66   0.1326   0.8854     H
N      0.66003  0.26801  0.92064     N
C       0.6614   0.5596   0.3446     C
C       0.6623   0.3783   0.6068     C
C       0.6623   0.5042   0.0811     C
O      0.66395  0.28854  0.40109     O
C        0.664   0.7529   0.6495     C
C       0.6656   0.4311   0.3391     C
H       0.6658   0.3289   0.5991     H
H       0.6664   0.8055   0.6531     H
C      0.66745   0.3911  0.10795     C
H         0.67   0.3441   0.8089     H
Mo     0.67064  0.54904  0.85688    Mo
H       0.6711   0.4397   0.4412     H
C       0.6796   0.3004   0.8862     C
O      0.67963  0.69763  0.97374     O
Mo     0.68392  0.07127  0.51461    Mo
H        0.685   0.6165   0.3579     H
C       0.6851    0.035   0.1393     C
O      0.68785  0.54824  0.79549     O
O       0.6879  0.58965  0.01555     O
Mo      0.6902  0.84425  0.91187    Mo
O      0.69141   0.1877  0.25011     O
H       0.6916   0.3999   0.3485     H
O      0.69212  0.05763  0.36673     O
C       0.6923   0.6825   0.2294     C
Mo     0.69524  0.20934  0.49944    Mo
H        0.696   0.4932   0.2518     H
O      0.69625  0.82114  0.85019     O
H       0.6971   0.0881   0.1546     H
N      0.69826  0.57264   0.5281     N
C      0.69968   0.4904  0.04948     C
C       0.7015   0.3764   0.0751     C
C      0.70187   0.5153  0.35837     C
C       0.7028   0.5832    0.222     C
H       0.7049   0.7382   0.2317     H
O      0.70491  0.59119   0.9205     O
H       0.7067   0.2618   0.9795     H
O      0.70779  0.91612  0.38651     O
N       0.7092  0.66019  0.62019     N
C       0.7094   0.2759   0.1881     C
C       0.7116   0.7342   0.6264     C
H       0.7118   0.3874   0.7026     H
N      0.71308   0.5196  0.60648     N
O      0.71313  0.09806  0.56919     O
H       0.7137   0.3317   0.0724     H
C        0.714    0.449   0.5964     C
C       0.7146   0.5225   0.5005     C
C        0.715   0.3168   0.1554     C
O      0.71564  0.21246   0.3465     O
C       0.7183   0.4253   0.0464     C
C       0.7203   0.2846   0.9557     C
C       0.7215   0.5465     0.02     C
O      0.72493  0.26677   0.5505     O
C       0.7285   0.9445   0.1068     C
C       0.7303   0.5337   0.2396     C
O      0.73081  0.85936  0.96997     O
C       0.7322   0.5821   0.2425     C
O       0.7348   0.9621   0.3143     O
Mo      0.7379  0.94773  0.45215    Mo
O       0.7381  0.70355  0.78645     O
H       0.7389   0.6772   0.1915     H
H       0.7414   0.4442   0.2482     H
H       0.7426   0.4147   0.0243     H
H       0.7427   0.4151   0.2776     H
C       0.7469   0.0217   0.1284     C
H       0.7472   0.7746   0.6146     H
O      0.74725  0.10764  0.29549     O
H       0.7491    0.258   0.1971     H
H       0.7521   0.4462   0.5811     H
H       0.7525    0.084   0.6485     H
O      0.75259  0.01503  0.50362     O
N       0.7543   0.6642   0.2445     N
C       0.7561   0.6429   0.2048     C
O      0.75793  0.51359  0.86792     O
H       0.7586   0.3271   0.1421     H
H       0.7593   0.6413   0.4276     H
C       0.7605   0.3843   0.7144     C
O      0.76064  0.98309  0.83533     O
C       0.7615   0.3497   0.8876     C
Mo      0.7655  0.27379  0.40775    Mo
O      0.76815  0.15949  0.49762     O
H       0.7702   0.9333   0.0991     H
H        0.772   0.7357   0.3299     H
O       0.7722  0.76171  0.91731     O
H       0.7738   0.4261   0.7775     H
H       0.7743   0.3707   0.8632     H
O      0.77435  0.59138  0.73293     O
O      0.77611  0.29411  0.47374     O
O      0.77674  0.54416   0.0015     O
H       0.7807   0.3345   0.6548     H
Ru      0.7814  0.62612  0.58934    Ru
H       0.7823   0.7272   0.5205     H
C      0.78315   0.5595  0.39205     C
O      0.78373  0.82557   0.0505     O
O      0.78909  0.86063  0.79432     O
H       0.7895      0.8   0.4059     H
Mo      0.7901   0.8042  0.99944    Mo
H       0.7917   0.4452   0.4653     H
Mo     0.79358  0.63559  0.78557    Mo
C       0.7941   0.4907   0.2604     C
C       0.7956   0.5261   0.5167     C
C       0.7968   0.4271   0.2759     C
Mo     0.79786  0.91853  0.84785    Mo
C       0.7979   0.4077   0.7576     C
Mo     0.79796   0.0039   0.3711    Mo
O      0.80002  0.90571  0.46573     O
C       0.8013   0.6264   0.4249     C
O      0.80147  0.93029  0.91182     O
H       0.8015   0.0653   0.1358     H
C       0.8026   0.5681   0.2603     C
C       0.8027   0.3522   0.6857     C
C        0.803   0.3345   0.9589     C
H       0.8039   0.3404   0.3039     H
Zn     0.80748  0.61817  0.96463    Zn
C       0.8078   0.5423   0.2397     C
Mo     0.80784  0.18624  0.35688    Mo
O       0.8091  0.67461  0.86673     O
C       0.8096   0.1055   0.6627     C
O        0.814  0.04562  0.43502     O
H       0.8152   0.9908   0.2026     H
H       0.8187   0.1252   0.7285     H
H       0.8196   0.2773   0.6171     H
H       0.8203   0.8741   0.1548     H
C       0.8238   0.3679   0.9247     C
C       0.8252    0.482    0.493     C
C       0.8268   0.7711   0.3475     C
C       0.8289   0.7646   0.5443     C
O      0.82931  0.21559   0.4205     O
C       0.8301   0.9539   0.2144     C
C       0.8322   0.6505   0.2075     C
C        0.833   0.3834   0.2914     C
H       0.8331   0.4893   0.3676     H
C       0.8335    0.883   0.1857     C
O      0.83426  0.36775  0.40741     O
C       0.8344   0.8046   0.3946     C
O      0.83539  0.78133  0.73012     O
O      0.83813  0.72947  0.99762     O
C       0.8396   0.4897   0.2575     C
H       0.8398   0.7975   0.1171     H
P      0.84017  0.76236  0.89553     P
N      0.84115  0.57836  0.55651     N
O      0.84199  0.01588  0.04407     O
Mo     0.84352  0.78884  0.78344    Mo
H       0.8448   0.3453   0.9845     H
C       0.8448    0.536   0.3894     C
Zn     0.84646  0.15715  0.46463    Zn
N      0.84737  0.73939  0.57936     N
C       0.8499   0.9597   0.2576     C
H       0.8501   0.5905   0.6756     H
C       0.8503   0.7611    0.132     C
H       0.8514   0.0037   0.2775     H
O       0.8522   0.5795   0.8143     O
H       0.8531   0.6859   0.0806     H
C       0.8535    0.839   0.2031     C
C       0.8538   0.1359   0.7097     C
O      0.85433  0.10999  0.36792     O
H       0.8559    0.428   0.2785     H
C       0.8583   0.7688   0.1777     C
O      0.85842   0.8231  0.86602     O
C       0.8592   0.6956   0.1112     C
H       0.8608   0.8603   0.5155     H
C       0.8612   0.4808    0.278     C
N       0.8628   0.6042    0.226     N
C       0.8641   0.3496   0.7031     C
H        0.867   0.6912   0.1956     H
Mo      0.8672  0.57314   0.8711    Mo
H       0.8674   0.0959   0.6123     H
N       0.8674   0.8406   0.2478     N
C       0.8677   0.9028   0.2735     C
O      0.86822  0.96918   0.3722     O
C       0.8707   0.4058   0.7735     C
C       0.8709   0.2817    0.632     C
C       0.8756   0.8441   0.5411     C
N       0.8758   0.7172      0.2     N
N      0.87621  0.68185  0.64666     N
C       0.8768    0.643    0.134     C
N       0.8782   0.6368    0.274     N
C       0.8789   0.6719   0.4536     C
Ru     0.87926  0.74271  0.26555    Ru
H       0.8798   0.4026   0.9266     H
H       0.8808   0.9084   0.3042     H
N       0.8823   0.7824   0.3275     N
C       0.8824   0.1187   0.6429     C
C       0.8836   0.6567   0.1781     C
H       0.8837   0.5995   0.1192     H
O      0.88596  0.26159  0.34595     O
C       0.8883   0.6459   0.6786     C
O       0.8894  0.62102  0.93502     O
O      0.89008  0.89493  0.99501     O
H       0.8904   0.7183   0.4757     H
Cl      0.8941  0.25722  0.17566    Cl
H       0.8941   0.3836   0.0941     H
H       0.8942   0.6209   0.1935     H
H       0.8947   0.2275   0.5806     H
H       0.8958   0.4234   0.8042     H
H       0.8967   0.0902   0.7715     H
O      0.90302  0.50398   0.8722     O
C       0.9033   0.4919   0.5098     C
O       0.9042  0.73009  0.80249     O
Zn     0.90444  0.97467  0.95871    Zn
H       0.9058   0.4421   0.1701     H
N       0.9072   0.3804   0.7478     N
O      0.90862   0.9831  0.86452     O
C       0.9089   0.3194   0.6777     C
C         0.91   0.4398   0.1054     C
C       0.9111   0.4003   0.2894     C
H        0.913   0.4791   0.0497     H
C       0.9142   0.7934   0.6138     C
C       0.9156    0.252   0.6112     C
C       0.9179   0.8441   0.4196     C
C       0.9184   0.5899   0.5723     C
N       0.9197   0.5098   0.2555     N
O      0.91983  0.18691  0.05174     O
O      0.92069  0.78937   0.9324     O
O      0.92116  0.97039  0.12715     O
C       0.9231   0.5812   0.4189     C
C       0.9236   0.4793   0.1525     C
H        0.924   0.4611   0.4943     H
C       0.9245   0.4983   0.0804     C
O       0.9259  0.32765  0.51555     O
C       0.9262   0.1441   0.7903     C
H       0.9274   0.7007   0.3065     H
H       0.9294   0.8633   0.4503     H
C       0.9311   0.7606   0.6511     C
H       0.9355    0.104   0.8515     H
H        0.936   0.1925   0.7377     H
H       0.9363   0.3698   0.3007     H
C       0.9375   0.1775   0.7314     C
C       0.9381   0.5513   0.2952     C
Mo     0.93983  0.09021  0.05732    Mo
O      0.93998  0.33429  0.03427     O
C      0.94092   0.6502  0.45052     C
C       0.9428   0.1469   0.8373     C
C        0.943   0.6247   0.2925     C
C       0.9432   0.8991   0.5753     C
Mo     0.94334  0.83069  0.01461    Mo
H       0.9447   0.2036   0.2537     H
C       0.9461   0.2061   0.7686     C
O      0.94908  0.89058  0.80966     O
H       0.9515   0.6281   0.5998     H
C       0.9516   0.5483   0.5501     C
C       0.9529   0.5777   0.0964     C
C       0.9531   0.4629   0.2706     C
O      0.95454  0.08552  0.99612     O
C       0.9546   0.6866    0.716     C
H       0.9548   0.1983   0.7623     H
N       0.9549   0.5548   0.1725     N
O      0.95734  0.22476   0.5015     O
H       0.9619   0.6592   0.7379     H
C       0.9621   0.8739   0.6124     C
H       0.9633   0.6137   0.0776     H
H       0.9639   0.1143   0.5776     H
H       0.9644   0.5649   0.4173     H
H       0.9648   0.1389   0.3089     H
C       0.9667    0.826   0.3581     C
C       0.9674   0.1594   0.6638     C
C       0.9679   0.6086   0.1419     C
O      0.96805  0.13795   0.1206     O
O      0.97039  0.67872  0.88651     O
O      0.97113  0.85606  0.06919     O
C       0.9735   0.2985     0.52     C
C       0.9758   0.2395   0.8571     C
H        0.976   0.9532   0.5734     H
Ru     0.97716  0.61371  0.23445    Ru
C       0.9786   0.7055   0.3219     C
N         0.98   0.2862    0.791     N
H       0.9803   0.7645   0.3808     H
C       0.9813   0.8565   0.4036     C
N       0.9828   0.3242      0.7     N
H       0.9836   0.2551   0.8877     H
H       0.9857   0.5474   0.3085     H
O      0.98859  0.75103  0.00362     O
O      0.98956  0.96249  0.93465     O
C       0.9902   0.2328   0.2792     C
C        0.991   0.2572    0.634     C
H       0.9925   0.0889   0.3632     H
H       0.9935   0.5268   0.7317     H
H       0.9936   0.4422    0.438     H
Zn     0.99486   0.2488  0.15268    Zn
N       0.9952    0.189    0.709     N
Mo     0.99558  0.28575  0.04785    Mo
C       0.9956   0.3036   0.8362     C
H       0.9956   0.6714   0.3044     H
Mo     0.99618  0.94552  0.87394    Mo
C       0.9981   0.8053   0.6882     C
