data_I
_chemical_name_common  '/home/zhangsd/repos/MofS-CGCNN/ML/data/WS24/clean_cifs/XAVQIU01'
_cell_length_a 10.10700
_cell_length_b 10.25800
_cell_length_c 16.27600
_cell_angle_alpha 90.00000
_cell_angle_beta  95.38000
_cell_angle_gamma 90.00000
_space_group_name_H-M_alt      'P 1'


loop_
_space_group_symop_operation_xyz
  'x, y, z' 

loop_
_atom_site_label
_atom_site_fract_x
_atom_site_fract_y
_atom_site_fract_z
_atom_site_type_symbol
Co         0.0      0.0      0.0    Co
Co         0.0      0.5      0.5    Co
H       0.0506   0.6407   0.7503     H
H       0.0506   0.8593   0.2503     H
O       0.0532   0.2466   0.6311     O
O       0.0532   0.2534   0.1311     O
C       0.0642   0.7202   0.3897     C
C       0.0642   0.7798   0.8897     C
O        0.094   0.5502   0.6121     O
O        0.094   0.9498   0.1121     O
O       0.1032   0.6392   0.4445     O
O       0.1032   0.8608   0.9445     O
C       0.1389    0.648   0.7716     C
C       0.1389    0.852   0.2716     C
C       0.1703    0.717   0.8441     C
C       0.1703    0.783   0.3441     C
C       0.2011   0.5161   0.6521     C
C       0.2011   0.9839   0.1521     C
Co       0.227  0.24604  0.07763    Co
Co       0.227  0.25396  0.57763    Co
C       0.2377   0.5897   0.7304     C
C       0.2377   0.9103   0.2304     C
O       0.2795   0.0714   0.1333     O
O       0.2795   0.4286   0.6333     O
C       0.3028   0.7278   0.8747     C
C       0.3028   0.7722   0.3747     C
H       0.3248   0.7253   0.4229     H
H       0.3248   0.7747   0.9229     H
O       0.3629   0.1614   0.6765     O
O       0.3629   0.3386   0.1765     O
C       0.3702   0.5985    0.763     C
C       0.3702   0.9015    0.263     C
C        0.403     0.67   0.8347     C
C        0.403     0.83   0.3347     C
O       0.4305   0.2323   0.5604     O
O       0.4305   0.2677   0.0604     O
H       0.4364   0.5568   0.7368     H
H       0.4364   0.9432   0.2368     H
C       0.4546   0.1876   0.6324     C
C       0.4546   0.3124   0.1324     C
C       0.5454   0.6876   0.8676     C
C       0.5454   0.8124   0.3676     C
H       0.5636   0.0568   0.7632     H
H       0.5636   0.4432   0.2632     H
O       0.5695   0.7323   0.9396     O
O       0.5695   0.7677   0.4396     O
C        0.597     0.17   0.6653     C
C        0.597     0.33   0.1653     C
C       0.6298   0.0985    0.737     C
C       0.6298   0.4015    0.237     C
O       0.6371   0.6614   0.8235     O
O       0.6371   0.8386   0.3235     O
H       0.6752   0.2253   0.0771     H
H       0.6752   0.2747   0.5771     H
C       0.6972   0.2278   0.6253     C
C       0.6972   0.2722   0.1253     C
O       0.7205   0.5714   0.3667     O
O       0.7205   0.9286   0.8667     O
C       0.7623   0.0897   0.7696     C
C       0.7623   0.4103   0.2696     C
Co       0.773  0.74604  0.42237    Co
Co       0.773  0.75396  0.92237    Co
C       0.7989   0.0161   0.8479     C
C       0.7989   0.4839   0.3479     C
C       0.8297    0.217   0.6559     C
C       0.8297    0.283   0.1559     C
C       0.8611    0.148   0.7284     C
C       0.8611    0.352   0.2284     C
O       0.8968   0.1392   0.0555     O
O       0.8968   0.3608   0.5555     O
O        0.906   0.0502   0.8879     O
O        0.906   0.4498   0.3879     O
C       0.9358   0.2202   0.1103     C
C       0.9358   0.2798   0.6103     C
O       0.9468   0.7466   0.8689     O
O       0.9468   0.7534   0.3689     O
H       0.9494   0.1407   0.7497     H
H       0.9494   0.3593   0.2497     H
