data_I
_chemical_name_common  '/home/zhangsd/repos/MofS-CGCNN/ML/data/WS24/clean_cifs/XEJJIG'
_cell_length_a  7.70700
_cell_length_b  9.68600
_cell_length_c 10.57000
_cell_angle_alpha 106.65000
_cell_angle_beta  105.25200
_cell_angle_gamma 100.68900
_space_group_name_H-M_alt      'P 1'


loop_
_space_group_symop_operation_xyz
  'x, y, z' 

loop_
_atom_site_label
_atom_site_fract_x
_atom_site_fract_y
_atom_site_fract_z
_atom_site_type_symbol
O       0.0419   0.8287   0.2274     O
O       0.0667   0.1394   0.5967     O
C       0.0867   0.2093   0.7265     C
H       0.1547   0.6011   0.2617     H
H       0.1871   0.5088   0.0359     H
H       0.2246   0.5272   0.3761     H
H       0.2353     0.43   0.8104     H
Gd     0.24673  0.03183  0.45083    Gd
C       0.2575   0.3349   0.8183     C
C       0.2599   0.4478   0.0661     C
C       0.2625   0.5725   0.3112     C
H       0.2646   0.7347    0.735     H
C         0.31   0.4589   0.2064     C
C       0.3137   0.3501   0.9699     C
O       0.3146   0.9597   0.6572     O
H       0.3627   0.3194    0.784     H
H       0.3649   0.8748   0.8781     H
C       0.3859   0.8099   0.7956     C
O       0.3944   0.0667    0.289     O
O       0.4033    0.843   0.4158     O
O       0.4119   0.2988   0.5557     O
C        0.418   0.3705   0.2495     C
C       0.4252   0.2633   0.0152     C
C       0.4271   0.7127   0.3952     C
C       0.4444   0.9075    0.714     C
H       0.4522   0.3762   0.3444     H
H       0.4653   0.1978   0.9504     H
C       0.4778    0.272   0.1542     C
C       0.5222    0.728   0.8458     C
H       0.5347   0.8022   0.0496     H
H       0.5478   0.6238   0.6556     H
C       0.5556   0.0925    0.286     C
C       0.5729   0.2873   0.6048     C
C       0.5748   0.7367   0.9848     C
C        0.582   0.6295   0.7505     C
O       0.5881   0.7012   0.4443     O
O       0.5967    0.157   0.5842     O
O       0.6056   0.9333    0.711     O
C       0.6141   0.1901   0.2044     C
H       0.6351   0.1252   0.1219     H
H       0.6373   0.6806    0.216     H
O       0.6854   0.0403   0.3428     O
C       0.6863   0.6499   0.0301     C
C         0.69   0.5411   0.7936     C
H       0.7354   0.2653    0.265     H
C       0.7375   0.4275   0.6888     C
C       0.7401   0.5522   0.9339     C
C       0.7425   0.6651   0.1817     C
Gd     0.75327  0.96817  0.54917    Gd
H       0.7647     0.57   0.1896     H
H       0.7754   0.4728   0.6239     H
H       0.8129   0.4912   0.9641     H
H       0.8453   0.3989   0.7383     H
C       0.9133   0.7907   0.2735     C
O       0.9333   0.8606   0.4033     O
O       0.9581   0.1713   0.7726     O
