data_I
_chemical_name_common  '/home/zhangsd/repos/MofS-CGCNN/ML/data/WS24/clean_cifs/XEJJOM'
_cell_length_a  7.64800
_cell_length_b  9.67600
_cell_length_c 10.56200
_cell_angle_alpha 106.67200
_cell_angle_beta  105.28300
_cell_angle_gamma 100.70600
_space_group_name_H-M_alt      'P 1'


loop_
_space_group_symop_operation_xyz
  'x, y, z' 

loop_
_atom_site_label
_atom_site_fract_x
_atom_site_fract_y
_atom_site_fract_z
_atom_site_type_symbol
O       0.0426   0.8319   0.2277     O
O       0.0656   0.1384   0.5964     O
C        0.084   0.2056   0.7256     C
H       0.1518   0.6033   0.2596     H
H       0.1857   0.5074   0.0363     H
H       0.2201   0.5303   0.3754     H
H       0.2385   0.4295   0.8113     H
Dy     0.24668  0.03208  0.45167    Dy
C       0.2593   0.4465   0.0666     C
C       0.2596   0.5747   0.3102     C
C       0.2601   0.3343   0.8197     C
H       0.2636   0.7354   0.7334     H
C       0.3085   0.4586   0.2059     C
C       0.3131   0.3492   0.9697     C
O        0.315   0.9601   0.6551     O
H       0.3664   0.8752   0.8766     H
H       0.3668   0.3182   0.7865     H
C       0.3866   0.8102   0.7936     C
O       0.3923   0.0683   0.2906     O
O       0.4015   0.8444   0.4161     O
O        0.412   0.2971   0.5583     O
C       0.4171   0.3707   0.2497     C
C       0.4236   0.2643   0.0176     C
C       0.4265    0.715   0.3944     C
C       0.4429   0.9076   0.7125     C
H       0.4505   0.3769   0.3448     H
H       0.4633   0.1976   0.9531     H
C       0.4785   0.2731   0.1567     C
C       0.5215   0.7269   0.8433     C
H       0.5367   0.8024   0.0469     H
H       0.5495   0.6231   0.6552     H
C       0.5571   0.0924   0.2875     C
C       0.5735    0.285   0.6056     C
C       0.5764   0.7357   0.9824     C
C       0.5829   0.6293   0.7503     C
O        0.588   0.7029   0.4417     O
O       0.5985   0.1556   0.5839     O
O       0.6077   0.9317   0.7094     O
C       0.6134   0.1898   0.2064     C
H       0.6332   0.6818   0.2135     H
H       0.6336   0.1248   0.1234     H
O        0.685   0.0399   0.3449     O
C       0.6869   0.6508   0.0303     C
C       0.6915   0.5414   0.7941     C
H       0.7364   0.2646   0.2666     H
C       0.7399   0.6657   0.1803     C
C       0.7404   0.4253   0.6898     C
C       0.7407   0.5535   0.9334     C
Dy     0.75332  0.96792  0.54833    Dy
H       0.7615   0.5705   0.1887     H
H       0.7799   0.4697   0.6246     H
H       0.8143   0.4926   0.9637     H
H       0.8482   0.3967   0.7404     H
C        0.916   0.7944   0.2744     C
O       0.9344   0.8616   0.4036     O
O       0.9574   0.1681   0.7723     O
