data_I
_chemical_name_common  '/home/zhangsd/repos/MofS-CGCNN/ML/data/WS24/clean_cifs/XICXIS'
_cell_length_a 25.67802
_cell_length_b 25.67802
_cell_length_c 25.67802
_cell_angle_alpha 60.00000
_cell_angle_beta  60.00000
_cell_angle_gamma 60.00000
_space_group_name_H-M_alt      'P 1'


loop_
_space_group_symop_operation_xyz
  'x, y, z' 

loop_
_atom_site_label
_atom_site_fract_x
_atom_site_fract_y
_atom_site_fract_z
_atom_site_type_symbol
Zn     0.00148     0.25     0.75    Zn
Zn     0.00148  0.49852     0.25    Zn
Zn     0.00148     0.75  0.49852    Zn
O      0.00355  0.21011  0.70119     O
O      0.00355  0.58515  0.21011     O
O      0.00355  0.70119  0.58515     O
C       0.0061   0.0569   0.2159     C
C       0.0061   0.2159   0.2211     C
C       0.0061   0.2211   0.0569     C
C      0.00677  0.06063  0.71701     C
C      0.00677  0.71559  0.06063     C
C      0.00677  0.71701  0.71559     C
H       0.0072   0.1306   0.4082     H
H       0.0072   0.4082    0.954     H
H       0.0072    0.954   0.1306     H
C         0.01   0.1256   0.6836     C
C         0.01   0.6808   0.1256     C
C         0.01   0.6836   0.6808     C
H       0.0105   0.0965   0.1885     H
H       0.0105   0.1885   0.2045     H
H       0.0105   0.2045   0.0965     H
C      0.01174  0.15246  0.72312     C
C      0.01174  0.61268  0.15246     C
C      0.01174  0.72312  0.61268     C
C      0.01405  0.16611  0.87897     C
C      0.01405  0.44087  0.16611     C
C      0.01405  0.87897  0.44087     C
C      0.01573  0.59067  0.90969     C
C      0.01573  0.90969  0.98391     C
C      0.01573  0.98391  0.59067     C
C      0.01609  0.09031  0.40933     C
C      0.01609  0.40933  0.98427     C
C      0.01609  0.98427  0.09031     C
O      0.02104  0.11916  0.77306     O
O      0.02104  0.58674  0.11916     O
O      0.02104  0.77306  0.58674     O
H       0.0266   0.2964   0.8464     H
H       0.0266   0.3306   0.2964     H
H       0.0266   0.8464   0.3306     H
C      0.02853  0.58981  0.95675     C
C      0.02853  0.92491  0.58981     C
C      0.02853  0.95675  0.92491     C
H       0.0298   0.1014   0.5446     H
H       0.0298   0.5446   0.8242     H
H       0.0298   0.8242   0.1014     H
N      0.04297  0.19565  0.81815     N
N      0.04297  0.44323  0.19565     N
N      0.04297  0.81815  0.44323     N
C      0.04325  0.07509  0.97147     C
C      0.04325  0.41019  0.07509     C
C      0.04325  0.97147  0.41019     C
H       0.0446   0.3242   0.6014     H
H       0.0446   0.5298   0.3242     H
H       0.0446   0.6014   0.5298     H
H        0.046   0.5918   0.8694     H
H        0.046   0.8694   0.9928     H
H        0.046   0.9928   0.5918     H
H        0.048   0.1254    0.646     H
H        0.048    0.646   0.6806     H
H        0.048   0.6806   0.1254     H
C       0.0518   0.2506   0.9468     C
C       0.0518   0.2508   0.2506     C
C       0.0518   0.9468   0.2508     C
C       0.0532   0.7492   0.9482     C
C       0.0532   0.7494   0.7492     C
C       0.0532   0.9482   0.7494     C
N      0.05677  0.30435  0.68185     N
N      0.05677  0.45703  0.30435     N
N      0.05677  0.68185  0.45703     N
C       0.0569   0.0061   0.2211     C
C       0.0569   0.2159   0.0061     C
C       0.0569   0.2211   0.2159     C
N      0.05703  0.12061  0.90777     N
N      0.05703  0.41459  0.12061     N
N      0.05703  0.90777  0.41459     N
C      0.05913  0.33389  0.62103     C
C      0.05913  0.48595  0.33389     C
C      0.05913  0.62103  0.48595     C
C      0.06063  0.00677  0.71559     C
C      0.06063  0.71559  0.71701     C
C      0.06063  0.71701  0.00677     C
C      0.07509  0.04325  0.41019     C
C      0.07509  0.41019  0.97147     C
C      0.07509  0.97147  0.04325     C
C      0.08327  0.33363  0.69049     C
C      0.08327  0.39261  0.33363     C
C      0.08327  0.69049  0.39261     C
O      0.08515  0.20119  0.50355     O
O      0.08515  0.50355  0.71011     O
O      0.08515  0.71011  0.20119     O
N      0.08541  0.37939  0.59223     N
N      0.08541  0.44297  0.37939     N
N      0.08541  0.59223  0.44297     N
O      0.08674  0.27306  0.52104     O
O      0.08674  0.52104  0.61916     O
O      0.08674  0.61916  0.27306     O
H       0.0882   0.3232   0.7284     H
H       0.0882   0.3602   0.3232     H
H       0.0882   0.7284   0.3602     H
H       0.0883   0.2493   0.2513     H
H       0.0883   0.2513   0.9111     H
H       0.0883   0.9111   0.2493     H
H       0.0889   0.7487   0.7507     H
H       0.0889   0.7507   0.9117     H
H       0.0889   0.9117   0.7487     H
C      0.08981  0.42491  0.52853     C
C      0.08981  0.45675  0.42491     C
C      0.08981  0.52853  0.45675     C
C      0.09031  0.01609  0.98427     C
C      0.09031  0.40933  0.01609     C
C      0.09031  0.98427  0.40933     C
C      0.09067  0.40969  0.48391     C
C      0.09067  0.48391  0.51573     C
C      0.09067  0.51573  0.40969     C
H       0.0918   0.3694   0.4928     H
H       0.0918   0.4928    0.546     H
H       0.0918    0.546   0.3694     H
N      0.09223  0.58541  0.94297     N
N      0.09223  0.87939  0.58541     N
N      0.09223  0.94297  0.87939     N
H       0.0945   0.1551   0.3801     H
H       0.0945   0.3801   0.8703     H
H       0.0945   0.8703   0.1551     H
H       0.0965   0.0105   0.2045     H
H       0.0965   0.1885   0.0105     H
H       0.0965   0.2045   0.1885     H
C      0.10078  0.37902   0.6363     C
C      0.10078   0.3839  0.37902     C
C      0.10078   0.6363   0.3839     C
H       0.1014   0.0298   0.8242     H
H       0.1014   0.5446   0.0298     H
H       0.1014   0.8242   0.5446     H
C      0.10739  0.16637  0.80951     C
C      0.10739  0.41673  0.16637     C
C      0.10739  0.80951  0.41673     C
C      0.11268  0.22312  0.51174     C
C      0.11268  0.51174  0.65246     C
C      0.11268  0.65246  0.22312     C
C       0.1161  0.12098   0.8637     C
C       0.1161  0.39922  0.12098     C
C       0.1161   0.8637  0.39922     C
O      0.11916  0.02104  0.58674     O
O      0.11916  0.58674  0.77306     O
O      0.11916  0.77306  0.02104     O
H       0.1199   0.3449   0.4055     H
H       0.1199   0.4055   0.6297     H
H       0.1199   0.6297   0.3449     H
N      0.12061  0.05703  0.41459     N
N      0.12061  0.41459  0.90777     N
N      0.12061  0.90777  0.05703     N
C      0.12098   0.1161  0.39922     C
C      0.12098  0.39922   0.8637     C
C      0.12098   0.8637   0.1161     C
C      0.12103  0.55913  0.98595     C
C      0.12103  0.83389  0.55913     C
C      0.12103  0.98595  0.83389     C
H       0.1254    0.048   0.6806     H
H       0.1254    0.646    0.048     H
H       0.1254   0.6806    0.646     H
C       0.1256     0.01   0.6808     C
C       0.1256   0.6808   0.6836     C
C       0.1256   0.6836     0.01     C
H       0.1297   0.6199   0.8449     H
H       0.1297   0.8449   0.9055     H
H       0.1297   0.9055   0.6199     H
H       0.1306   0.0072    0.954     H
H       0.1306   0.4082   0.0072     H
H       0.1306    0.954   0.4082     H
C       0.1363  0.60078   0.8839     C
C       0.1363  0.87902  0.60078     C
C       0.1363   0.8839  0.87902     C
H       0.1398   0.1768   0.7716     H
H       0.1398   0.4118   0.1768     H
H       0.1398   0.7716   0.4118     H
H        0.146   0.1806   0.6254     H
H        0.146    0.548   0.1806     H
H        0.146   0.6254    0.548     H
C      0.15246  0.01174  0.61268     C
C      0.15246  0.61268  0.72312     C
C      0.15246  0.72312  0.01174     C
H       0.1536   0.6694   0.9734     H
H       0.1536   0.7036   0.6694     H
H       0.1536   0.9734   0.7036     H
H       0.1551   0.0945   0.8703     H
H       0.1551   0.3801   0.0945     H
H       0.1551   0.8703   0.3801     H
C      0.16611  0.01405  0.44087     C
C      0.16611  0.44087  0.87897     C
C      0.16611  0.87897  0.01405     C
C      0.16637  0.10739  0.41673     C
C      0.16637  0.41673  0.80951     C
C      0.16637  0.80951  0.10739     C
H       0.1694   0.2036   0.6536     H
H       0.1694   0.4734   0.2036     H
H       0.1694   0.6536   0.4734     H
H       0.1758   0.4554   0.8986     H
H       0.1758   0.8986   0.9702     H
H       0.1758   0.9702   0.4554     H
H       0.1768   0.1398   0.4118     H
H       0.1768   0.4118   0.7716     H
H       0.1768   0.7716   0.1398     H
H       0.1806    0.146    0.548     H
H       0.1806    0.548   0.6254     H
H       0.1806   0.6254    0.146     H
C       0.1808   0.1836     0.51     C
C       0.1808     0.51   0.6256     C
C       0.1808   0.6256   0.1836     C
N      0.18185  0.55677  0.95703     N
N      0.18185  0.80435  0.55677     N
N      0.18185  0.95703  0.80435     N
C       0.1836   0.1808   0.6256     C
C       0.1836     0.51   0.1808     C
C       0.1836   0.6256     0.51     C
H       0.1885   0.0105   0.0965     H
H       0.1885   0.0965   0.2045     H
H       0.1885   0.2045   0.0105     H
C      0.19049  0.58327  0.89261     C
C      0.19049  0.83363  0.58327     C
C      0.19049  0.89261  0.83363     C
N      0.19565  0.04297  0.44323     N
N      0.19565  0.44323  0.81815     N
N      0.19565  0.81815  0.04297     N
O      0.20119  0.08515  0.71011     O
O      0.20119  0.50355  0.08515     O
O      0.20119  0.71011  0.50355     O
H       0.2036   0.1694   0.4734     H
H       0.2036   0.4734   0.6536     H
H       0.2036   0.6536   0.1694     H
H       0.2045   0.0105   0.1885     H
H       0.2045   0.0965   0.0105     H
H       0.2045   0.1885   0.0965     H
O      0.21011  0.00355  0.58515     O
O      0.21011  0.58515  0.70119     O
O      0.21011  0.70119  0.00355     O
C      0.21559  0.21701  0.50677     C
C      0.21559  0.50677  0.56063     C
C      0.21559  0.56063  0.21701     C
C       0.2159   0.0061   0.0569     C
C       0.2159   0.0569   0.2211     C
C       0.2159   0.2211   0.0061     C
C      0.21701  0.21559  0.56063     C
C      0.21701  0.50677  0.21559     C
C      0.21701  0.56063  0.50677     C
C       0.2211   0.0061   0.2159     C
C       0.2211   0.0569   0.0061     C
C       0.2211   0.2159   0.0569     C
C      0.22312  0.11268  0.65246     C
C      0.22312  0.51174  0.11268     C
C      0.22312  0.65246  0.51174     C
O      0.22694  0.41326  0.97896     O
O      0.22694  0.88084  0.41326     O
O      0.22694  0.97896  0.88084     O
H       0.2284   0.5882   0.8602     H
H       0.2284   0.8232   0.5882     H
H       0.2284   0.8602   0.8232     H
H       0.2487   0.2507   0.4117     H
H       0.2487   0.4117   0.5889     H
H       0.2487   0.5889   0.2507     H
C       0.2492   0.2494   0.5532     C
C       0.2492   0.4482   0.2494     C
C       0.2492   0.5532   0.4482     C
H       0.2493   0.0883   0.9111     H
H       0.2493   0.2513   0.0883     H
H       0.2493   0.9111   0.2513     H
C       0.2494   0.2492   0.4482     C
C       0.2494   0.4482   0.5532     C
C       0.2494   0.5532   0.2492     C
Zn        0.25  0.00148  0.49852    Zn
Zn        0.25  0.49852     0.75    Zn
Zn        0.25  0.50148  0.99852    Zn
Zn        0.25     0.75  0.00148    Zn
Zn        0.25     0.75  0.50148    Zn
Zn        0.25  0.99852     0.75    Zn
C       0.2506   0.0518   0.2508     C
C       0.2506   0.2508   0.9468     C
C       0.2506   0.9468   0.0518     C
H       0.2507   0.2487   0.5889     H
H       0.2507   0.4117   0.2487     H
H       0.2507   0.5889   0.4117     H
C       0.2508   0.0518   0.9468     C
C       0.2508   0.2506   0.0518     C
C       0.2508   0.9468   0.2506     C
H       0.2513   0.0883   0.2493     H
H       0.2513   0.2493   0.9111     H
H       0.2513   0.9111   0.0883     H
H       0.2716   0.6398   0.9118     H
H       0.2716   0.6768   0.6398     H
H       0.2716   0.9118   0.6768     H
O      0.27306  0.08674  0.61916     O
O      0.27306  0.52104  0.08674     O
O      0.27306  0.61916  0.52104     O
C      0.27688  0.38732  0.98826     C
C      0.27688  0.84754  0.38732     C
C      0.27688  0.98826  0.84754     C
C       0.2789   0.2841   0.4939     C
C       0.2789   0.4431   0.2841     C
C       0.2789   0.4939   0.4431     C
C      0.28299  0.28441  0.99323     C
C      0.28299  0.93937  0.28441     C
C      0.28299  0.99323  0.93937     C
C       0.2841   0.2789   0.4431     C
C       0.2841   0.4431   0.4939     C
C       0.2841   0.4939   0.2789     C
C      0.28441  0.28299  0.93937     C
C      0.28441  0.93937  0.99323     C
C      0.28441  0.99323  0.28299     C
O      0.28989  0.49645  0.79881     O
O      0.28989  0.79881  0.91485     O
O      0.28989  0.91485  0.49645     O
H       0.2955   0.3115   0.4895     H
H       0.2955   0.4035   0.3115     H
H       0.2955   0.4895   0.4035     H
H       0.2964   0.0266   0.3306     H
H       0.2964   0.3306   0.8464     H
H       0.2964   0.8464   0.0266     H
O      0.29881  0.41485  0.99645     O
O      0.29881  0.78989  0.41485     O
O      0.29881  0.99645  0.78989     O
N      0.30435  0.05677  0.45703     N
N      0.30435  0.45703  0.68185     N
N      0.30435  0.68185  0.05677     N
C      0.30951  0.60739  0.91673     C
C      0.30951  0.66637  0.60739     C
C      0.30951  0.91673  0.66637     C
H       0.3115   0.2955   0.4035     H
H       0.3115   0.4035   0.4895     H
H       0.3115   0.4895   0.2955     H
C       0.3164   0.3192     0.99     C
C       0.3164   0.8744   0.3192     C
C       0.3164     0.99   0.8744     C
N      0.31815  0.54297  0.94323     N
N      0.31815  0.69565  0.54297     N
N      0.31815  0.94323  0.69565     N
C       0.3192   0.3164   0.8744     C
C       0.3192   0.8744     0.99     C
C       0.3192     0.99   0.3164     C
H       0.3194    0.354   0.8746     H
H       0.3194   0.8746    0.952     H
H       0.3194    0.952    0.354     H
H       0.3232   0.0882   0.3602     H
H       0.3232   0.3602   0.7284     H
H       0.3232   0.7284   0.0882     H
H       0.3242   0.0446   0.5298     H
H       0.3242   0.5298   0.6014     H
H       0.3242   0.6014   0.0446     H
H       0.3306   0.0266   0.8464     H
H       0.3306   0.2964   0.0266     H
H       0.3306   0.8464   0.2964     H
C      0.33363  0.08327  0.39261     C
C      0.33363  0.39261  0.69049     C
C      0.33363  0.69049  0.08327     C
C      0.33389  0.05913  0.48595     C
C      0.33389  0.48595  0.62103     C
C      0.33389  0.62103  0.05913     C
H       0.3449   0.1199   0.6297     H
H       0.3449   0.4055   0.1199     H
H       0.3449   0.6297   0.4055     H
H       0.3464   0.5266   0.8306     H
H       0.3464   0.7964   0.5266     H
H       0.3464   0.8306   0.7964     H
C      0.34754  0.48826  0.77688     C
C      0.34754  0.77688  0.88732     C
C      0.34754  0.88732  0.48826     C
H        0.354   0.3194    0.952     H
H        0.354   0.8746   0.3194     H
H        0.354    0.952   0.8746     H
H       0.3602   0.0882   0.7284     H
H       0.3602   0.3232   0.0882     H
H       0.3602   0.7284   0.3232     H
C       0.3637   0.6161  0.89922     C
C       0.3637  0.62098   0.6161     C
C       0.3637  0.89922  0.62098     C
H       0.3694   0.0918    0.546     H
H       0.3694   0.4928   0.0918     H
H       0.3694    0.546   0.4928     H
H       0.3703   0.5945   0.6551     H
H       0.3703   0.6551   0.8801     H
H       0.3703   0.8801   0.5945     H
C       0.3744     0.49   0.8164     C
C       0.3744   0.8164   0.8192     C
C       0.3744   0.8192     0.49     C
H       0.3746    0.452    0.854     H
H       0.3746   0.8194    0.452     H
H       0.3746    0.854   0.8194     H
C      0.37897  0.51405  0.94087     C
C      0.37897  0.66611  0.51405     C
C      0.37897  0.94087  0.66611     C
C      0.37902  0.10078   0.3839     C
C      0.37902   0.3839   0.6363     C
C      0.37902   0.6363  0.10078     C
N      0.37939  0.08541  0.44297     N
N      0.37939  0.44297  0.59223     N
N      0.37939  0.59223  0.08541     N
H       0.3801   0.0945   0.1551     H
H       0.3801   0.1551   0.8703     H
H       0.3801   0.8703   0.0945     H
O      0.38084  0.47896  0.72694     O
O      0.38084  0.72694  0.91326     O
O      0.38084  0.91326  0.47896     O
C       0.3839  0.10078   0.6363     C
C       0.3839  0.37902  0.10078     C
C       0.3839   0.6363  0.37902     C
C      0.38732  0.27688  0.84754     C
C      0.38732  0.84754  0.98826     C
C      0.38732  0.98826  0.27688     C
C      0.39261  0.08327  0.69049     C
C      0.39261  0.33363  0.08327     C
C      0.39261  0.69049  0.33363     C
H       0.3986   0.4702   0.9554     H
H       0.3986   0.6758   0.4702     H
H       0.3986   0.9554   0.6758     H
C      0.39922   0.1161   0.8637     C
C      0.39922  0.12098   0.1161     C
C      0.39922   0.8637  0.12098     C
H       0.4035   0.2955   0.4895     H
H       0.4035   0.3115   0.2955     H
H       0.4035   0.4895   0.3115     H
H       0.4055   0.1199   0.3449     H
H       0.4055   0.3449   0.6297     H
H       0.4055   0.6297   0.1199     H
N      0.40777  0.55703  0.91459     N
N      0.40777  0.62061  0.55703     N
N      0.40777  0.91459  0.62061     N
H       0.4082   0.0072   0.1306     H
H       0.4082   0.1306    0.954     H
H       0.4082    0.954   0.0072     H
C      0.40933  0.01609  0.09031     C
C      0.40933  0.09031  0.98427     C
C      0.40933  0.98427  0.01609     C
C      0.40969  0.09067  0.51573     C
C      0.40969  0.48391  0.09067     C
C      0.40969  0.51573  0.48391     C
C      0.41019  0.04325  0.97147     C
C      0.41019  0.07509  0.04325     C
C      0.41019  0.97147  0.07509     C
H       0.4111   0.5883   0.7493     H
H       0.4111   0.7493   0.7513     H
H       0.4111   0.7513   0.5883     H
H       0.4117   0.2487   0.2507     H
H       0.4117   0.2507   0.5889     H
H       0.4117   0.5889   0.2487     H
H       0.4118   0.1398   0.7716     H
H       0.4118   0.1768   0.1398     H
H       0.4118   0.7716   0.1768     H
O      0.41326  0.22694  0.88084     O
O      0.41326  0.88084  0.97896     O
O      0.41326  0.97896  0.22694     O
N      0.41459  0.05703  0.90777     N
N      0.41459  0.12061  0.05703     N
N      0.41459  0.90777  0.12061     N
O      0.41485  0.29881  0.78989     O
O      0.41485  0.78989  0.99645     O
O      0.41485  0.99645  0.29881     O
C      0.41673  0.10739  0.80951     C
C      0.41673  0.16637  0.10739     C
C      0.41673  0.80951  0.16637     C
C      0.42491  0.08981  0.45675     C
C      0.42491  0.45675  0.52853     C
C      0.42491  0.52853  0.08981     C
C      0.43937  0.49323  0.78299     C
C      0.43937  0.78299  0.78441     C
C      0.43937  0.78441  0.49323     C
C      0.44087  0.01405  0.87897     C
C      0.44087  0.16611  0.01405     C
C      0.44087  0.87897  0.16611     C
N      0.44297  0.08541  0.59223     N
N      0.44297  0.37939  0.08541     N
N      0.44297  0.59223  0.37939     N
C       0.4431   0.2789   0.4939     C
C       0.4431   0.2841   0.2789     C
C       0.4431   0.4939   0.2841     C
N      0.44323  0.04297  0.81815     N
N      0.44323  0.19565  0.04297     N
N      0.44323  0.81815  0.19565     N
C       0.4468   0.5518   0.7508     C
C       0.4468   0.7506   0.5518     C
C       0.4468   0.7508   0.7506     C
C       0.4482   0.2492   0.5532     C
C       0.4482   0.2494   0.2492     C
C       0.4482   0.5532   0.2494     C
H        0.452   0.3746   0.8194     H
H        0.452   0.8194    0.854     H
H        0.452    0.854   0.3746     H
H        0.454   0.5072   0.6306     H
H        0.454   0.6306   0.9082     H
H        0.454   0.9082   0.5072     H
H       0.4554   0.1758   0.9702     H
H       0.4554   0.8986   0.1758     H
H       0.4554   0.9702   0.8986     H
C      0.45675  0.08981  0.52853     C
C      0.45675  0.42491  0.08981     C
C      0.45675  0.52853  0.42491     C
N      0.45703  0.05677  0.68185     N
N      0.45703  0.30435  0.05677     N
N      0.45703  0.68185  0.30435     N
H       0.4702   0.3986   0.6758     H
H       0.4702   0.6758   0.9554     H
H       0.4702   0.9554   0.3986     H
C      0.47147  0.54325  0.91019     C
C      0.47147  0.57509  0.54325     C
C      0.47147  0.91019  0.57509     C
H       0.4734   0.1694   0.6536     H
H       0.4734   0.2036   0.1694     H
H       0.4734   0.6536   0.2036     H
O      0.47896  0.38084  0.91326     O
O      0.47896  0.72694  0.38084     O
O      0.47896  0.91326  0.72694     O
C      0.48391  0.09067  0.40969     C
C      0.48391  0.40969  0.51573     C
C      0.48391  0.51573  0.09067     C
C      0.48427  0.51609  0.59031     C
C      0.48427  0.59031  0.90933     C
C      0.48427  0.90933  0.51609     C
C      0.48595  0.05913  0.62103     C
C      0.48595  0.33389  0.05913     C
C      0.48595  0.62103  0.33389     C
C      0.48826  0.34754  0.88732     C
C      0.48826  0.77688  0.34754     C
C      0.48826  0.88732  0.77688     C
H       0.4895   0.2955   0.3115     H
H       0.4895   0.3115   0.4035     H
H       0.4895   0.4035   0.2955     H
C         0.49   0.3744   0.8192     C
C         0.49   0.8164   0.3744     C
C         0.49   0.8192   0.8164     C
H       0.4928   0.0918   0.3694     H
H       0.4928   0.3694    0.546     H
H       0.4928    0.546   0.0918     H
C      0.49323  0.43937  0.78441     C
C      0.49323  0.78299  0.43937     C
C      0.49323  0.78441  0.78299     C
C       0.4939   0.2789   0.2841     C
C       0.4939   0.2841   0.4431     C
C       0.4939   0.4431   0.2789     C
O      0.49645  0.28989  0.91485     O
O      0.49645  0.79881  0.28989     O
O      0.49645  0.91485  0.79881     O
Zn     0.49852  0.00148     0.75    Zn
Zn     0.49852     0.25  0.00148    Zn
Zn     0.49852     0.75     0.25    Zn
Zn     0.50148     0.25     0.75    Zn
Zn     0.50148     0.75  0.99852    Zn
Zn     0.50148  0.99852     0.25    Zn
O      0.50355  0.08515  0.20119     O
O      0.50355  0.20119  0.71011     O
O      0.50355  0.71011  0.08515     O
C       0.5061   0.5569   0.7211     C
C       0.5061   0.7159   0.5569     C
C       0.5061   0.7211   0.7159     C
C      0.50677  0.21559  0.21701     C
C      0.50677  0.21701  0.56063     C
C      0.50677  0.56063  0.21559     C
H       0.5072    0.454   0.9082     H
H       0.5072   0.6306    0.454     H
H       0.5072   0.9082   0.6306     H
C         0.51   0.1808   0.1836     C
C         0.51   0.1836   0.6256     C
C         0.51   0.6256   0.1808     C
H       0.5105   0.5965   0.7045     H
H       0.5105   0.6885   0.5965     H
H       0.5105   0.7045   0.6885     H
C      0.51174  0.11268  0.22312     C
C      0.51174  0.22312  0.65246     C
C      0.51174  0.65246  0.11268     C
C      0.51405  0.37897  0.66611     C
C      0.51405  0.66611  0.94087     C
C      0.51405  0.94087  0.37897     C
C      0.51573  0.09067  0.48391     C
C      0.51573  0.40969  0.09067     C
C      0.51573  0.48391  0.40969     C
C      0.51609  0.48427  0.90933     C
C      0.51609  0.59031  0.48427     C
C      0.51609  0.90933  0.59031     C
O      0.52104  0.08674  0.27306     O
O      0.52104  0.27306  0.61916     O
O      0.52104  0.61916  0.08674     O
H       0.5266   0.3464   0.7964     H
H       0.5266   0.7964   0.8306     H
H       0.5266   0.8306   0.3464     H
C      0.52853  0.08981  0.42491     C
C      0.52853  0.42491  0.45675     C
C      0.52853  0.45675  0.08981     C
H       0.5298   0.0446   0.6014     H
H       0.5298   0.3242   0.0446     H
H       0.5298   0.6014   0.3242     H
N      0.54297  0.31815  0.69565     N
N      0.54297  0.69565  0.94323     N
N      0.54297  0.94323  0.31815     N
C      0.54325  0.47147  0.57509     C
C      0.54325  0.57509  0.91019     C
C      0.54325  0.91019  0.47147     C
H       0.5446   0.0298   0.1014     H
H       0.5446   0.1014   0.8242     H
H       0.5446   0.8242   0.0298     H
H        0.546   0.0918   0.4928     H
H        0.546   0.3694   0.0918     H
H        0.546   0.4928   0.3694     H
H        0.548    0.146   0.6254     H
H        0.548   0.1806    0.146     H
H        0.548   0.6254   0.1806     H
C       0.5518   0.4468   0.7506     C
C       0.5518   0.7506   0.7508     C
C       0.5518   0.7508   0.4468     C
C       0.5532   0.2492   0.2494     C
C       0.5532   0.2494   0.4482     C
C       0.5532   0.4482   0.2492     C
N      0.55677  0.18185  0.80435     N
N      0.55677  0.80435  0.95703     N
N      0.55677  0.95703  0.18185     N
C       0.5569   0.5061   0.7159     C
C       0.5569   0.7159   0.7211     C
C       0.5569   0.7211   0.5061     C
N      0.55703  0.40777  0.62061     N
N      0.55703  0.62061  0.91459     N
N      0.55703  0.91459  0.40777     N
C      0.55913  0.12103  0.83389     C
C      0.55913  0.83389  0.98595     C
C      0.55913  0.98595  0.12103     C
C      0.56063  0.21559  0.50677     C
C      0.56063  0.21701  0.21559     C
C      0.56063  0.50677  0.21701     C
C      0.57509  0.47147  0.91019     C
C      0.57509  0.54325  0.47147     C
C      0.57509  0.91019  0.54325     C
C      0.58327  0.19049  0.83363     C
C      0.58327  0.83363  0.89261     C
C      0.58327  0.89261  0.19049     C
O      0.58515  0.00355  0.70119     O
O      0.58515  0.21011  0.00355     O
O      0.58515  0.70119  0.21011     O
N      0.58541  0.09223  0.87939     N
N      0.58541  0.87939  0.94297     N
N      0.58541  0.94297  0.09223     N
O      0.58674  0.02104  0.77306     O
O      0.58674  0.11916  0.02104     O
O      0.58674  0.77306  0.11916     O
H       0.5882   0.2284   0.8232     H
H       0.5882   0.8232   0.8602     H
H       0.5882   0.8602   0.2284     H
H       0.5883   0.4111   0.7513     H
H       0.5883   0.7493   0.4111     H
H       0.5883   0.7513   0.7493     H
H       0.5889   0.2487   0.4117     H
H       0.5889   0.2507   0.2487     H
H       0.5889   0.4117   0.2507     H
C      0.58981  0.02853  0.92491     C
C      0.58981  0.92491  0.95675     C
C      0.58981  0.95675  0.02853     C
C      0.59031  0.48427  0.51609     C
C      0.59031  0.51609  0.90933     C
C      0.59031  0.90933  0.48427     C
C      0.59067  0.01573  0.98391     C
C      0.59067  0.90969  0.01573     C
C      0.59067  0.98391  0.90969     C
H       0.5918    0.046   0.9928     H
H       0.5918   0.8694    0.046     H
H       0.5918   0.9928   0.8694     H
N      0.59223  0.08541  0.37939     N
N      0.59223  0.37939  0.44297     N
N      0.59223  0.44297  0.08541     N
H       0.5945   0.3703   0.8801     H
H       0.5945   0.6551   0.3703     H
H       0.5945   0.8801   0.6551     H
H       0.5965   0.5105   0.6885     H
H       0.5965   0.6885   0.7045     H
H       0.5965   0.7045   0.5105     H
C      0.60078   0.1363  0.87902     C
C      0.60078  0.87902   0.8839     C
C      0.60078   0.8839   0.1363     C
H       0.6014   0.0446   0.3242     H
H       0.6014   0.3242   0.5298     H
H       0.6014   0.5298   0.0446     H
C      0.60739  0.30951  0.66637     C
C      0.60739  0.66637  0.91673     C
C      0.60739  0.91673  0.30951     C
C      0.61268  0.01174  0.72312     C
C      0.61268  0.15246  0.01174     C
C      0.61268  0.72312  0.15246     C
C       0.6161   0.3637  0.62098     C
C       0.6161  0.62098  0.89922     C
C       0.6161  0.89922   0.3637     C
O      0.61916  0.08674  0.52104     O
O      0.61916  0.27306  0.08674     O
O      0.61916  0.52104  0.27306     O
H       0.6199   0.1297   0.9055     H
H       0.6199   0.8449   0.1297     H
H       0.6199   0.9055   0.8449     H
N      0.62061  0.40777  0.91459     N
N      0.62061  0.55703  0.40777     N
N      0.62061  0.91459  0.55703     N
C      0.62098   0.3637  0.89922     C
C      0.62098   0.6161   0.3637     C
C      0.62098  0.89922   0.6161     C
C      0.62103  0.05913  0.33389     C
C      0.62103  0.33389  0.48595     C
C      0.62103  0.48595  0.05913     C
H       0.6254    0.146   0.1806     H
H       0.6254   0.1806    0.548     H
H       0.6254    0.548    0.146     H
C       0.6256   0.1808     0.51     C
C       0.6256   0.1836   0.1808     C
C       0.6256     0.51   0.1836     C
H       0.6297   0.1199   0.4055     H
H       0.6297   0.3449   0.1199     H
H       0.6297   0.4055   0.3449     H
H       0.6306    0.454   0.5072     H
H       0.6306   0.5072   0.9082     H
H       0.6306   0.9082    0.454     H
C       0.6363  0.10078  0.37902     C
C       0.6363  0.37902   0.3839     C
C       0.6363   0.3839  0.10078     C
H       0.6398   0.2716   0.6768     H
H       0.6398   0.6768   0.9118     H
H       0.6398   0.9118   0.2716     H
H        0.646    0.048   0.1254     H
H        0.646   0.1254   0.6806     H
H        0.646   0.6806    0.048     H
C      0.65246  0.11268  0.51174     C
C      0.65246  0.22312  0.11268     C
C      0.65246  0.51174  0.22312     C
H       0.6536   0.1694   0.2036     H
H       0.6536   0.2036   0.4734     H
H       0.6536   0.4734   0.1694     H
H       0.6551   0.3703   0.5945     H
H       0.6551   0.5945   0.8801     H
H       0.6551   0.8801   0.3703     H
C      0.66611  0.37897  0.94087     C
C      0.66611  0.51405  0.37897     C
C      0.66611  0.94087  0.51405     C
C      0.66637  0.30951  0.91673     C
C      0.66637  0.60739  0.30951     C
C      0.66637  0.91673  0.60739     C
H       0.6694   0.1536   0.7036     H
H       0.6694   0.7036   0.9734     H
H       0.6694   0.9734   0.1536     H
H       0.6758   0.3986   0.9554     H
H       0.6758   0.4702   0.3986     H
H       0.6758   0.9554   0.4702     H
H       0.6768   0.2716   0.9118     H
H       0.6768   0.6398   0.2716     H
H       0.6768   0.9118   0.6398     H
H       0.6806    0.048    0.646     H
H       0.6806   0.1254    0.048     H
H       0.6806    0.646   0.1254     H
C       0.6808     0.01   0.6836     C
C       0.6808   0.1256     0.01     C
C       0.6808   0.6836   0.1256     C
N      0.68185  0.05677  0.30435     N
N      0.68185  0.30435  0.45703     N
N      0.68185  0.45703  0.05677     N
C       0.6836     0.01   0.1256     C
C       0.6836   0.1256   0.6808     C
C       0.6836   0.6808     0.01     C
H       0.6885   0.5105   0.7045     H
H       0.6885   0.5965   0.5105     H
H       0.6885   0.7045   0.5965     H
C      0.69049  0.08327  0.33363     C
C      0.69049  0.33363  0.39261     C
C      0.69049  0.39261  0.08327     C
N      0.69565  0.31815  0.94323     N
N      0.69565  0.54297  0.31815     N
N      0.69565  0.94323  0.54297     N
O      0.70119  0.00355  0.21011     O
O      0.70119  0.21011  0.58515     O
O      0.70119  0.58515  0.00355     O
H       0.7036   0.1536   0.9734     H
H       0.7036   0.6694   0.1536     H
H       0.7036   0.9734   0.6694     H
H       0.7045   0.5105   0.5965     H
H       0.7045   0.5965   0.6885     H
H       0.7045   0.6885   0.5105     H
O      0.71011  0.08515  0.50355     O
O      0.71011  0.20119  0.08515     O
O      0.71011  0.50355  0.20119     O
C      0.71559  0.00677  0.71701     C
C      0.71559  0.06063  0.00677     C
C      0.71559  0.71701  0.06063     C
C       0.7159   0.5061   0.7211     C
C       0.7159   0.5569   0.5061     C
C       0.7159   0.7211   0.5569     C
C      0.71701  0.00677  0.06063     C
C      0.71701  0.06063  0.71559     C
C      0.71701  0.71559  0.00677     C
C       0.7211   0.5061   0.5569     C
C       0.7211   0.5569   0.7159     C
C       0.7211   0.7159   0.5061     C
C      0.72312  0.01174  0.15246     C
C      0.72312  0.15246  0.61268     C
C      0.72312  0.61268  0.01174     C
O      0.72694  0.38084  0.47896     O
O      0.72694  0.47896  0.91326     O
O      0.72694  0.91326  0.38084     O
H       0.7284   0.0882   0.3232     H
H       0.7284   0.3232   0.3602     H
H       0.7284   0.3602   0.0882     H
H       0.7487   0.0889   0.9117     H
H       0.7487   0.7507   0.0889     H
H       0.7487   0.9117   0.7507     H
C       0.7492   0.0532   0.7494     C
C       0.7492   0.7494   0.9482     C
C       0.7492   0.9482   0.0532     C
H       0.7493   0.4111   0.5883     H
H       0.7493   0.5883   0.7513     H
H       0.7493   0.7513   0.4111     H
C       0.7494   0.0532   0.9482     C
C       0.7494   0.7492   0.0532     C
C       0.7494   0.9482   0.7492     C
Zn        0.75  0.00148     0.25    Zn
Zn        0.75     0.25  0.49852    Zn
Zn        0.75     0.25  0.99852    Zn
Zn        0.75  0.49852  0.00148    Zn
Zn        0.75  0.50148     0.25    Zn
Zn        0.75  0.99852  0.50148    Zn
C       0.7506   0.4468   0.7508     C
C       0.7506   0.5518   0.4468     C
C       0.7506   0.7508   0.5518     C
H       0.7507   0.0889   0.7487     H
H       0.7507   0.7487   0.9117     H
H       0.7507   0.9117   0.0889     H
C       0.7508   0.4468   0.5518     C
C       0.7508   0.5518   0.7506     C
C       0.7508   0.7506   0.4468     C
H       0.7513   0.4111   0.7493     H
H       0.7513   0.5883   0.4111     H
H       0.7513   0.7493   0.5883     H
H       0.7716   0.1398   0.1768     H
H       0.7716   0.1768   0.4118     H
H       0.7716   0.4118   0.1398     H
O      0.77306  0.02104  0.11916     O
O      0.77306  0.11916  0.58674     O
O      0.77306  0.58674  0.02104     O
C      0.77688  0.34754  0.48826     C
C      0.77688  0.48826  0.88732     C
C      0.77688  0.88732  0.34754     C
C       0.7789   0.7841   0.9431     C
C       0.7789   0.9431   0.9939     C
C       0.7789   0.9939   0.7841     C
C      0.78299  0.43937  0.49323     C
C      0.78299  0.49323  0.78441     C
C      0.78299  0.78441  0.43937     C
C       0.7841   0.7789   0.9939     C
C       0.7841   0.9431   0.7789     C
C       0.7841   0.9939   0.9431     C
C      0.78441  0.43937  0.78299     C
C      0.78441  0.49323  0.43937     C
C      0.78441  0.78299  0.49323     C
O      0.78989  0.29881  0.99645     O
O      0.78989  0.41485  0.29881     O
O      0.78989  0.99645  0.41485     O
H       0.7955   0.8115   0.9035     H
H       0.7955   0.9035   0.9895     H
H       0.7955   0.9895   0.8115     H
H       0.7964   0.3464   0.8306     H
H       0.7964   0.5266   0.3464     H
H       0.7964   0.8306   0.5266     H
O      0.79881  0.28989  0.49645     O
O      0.79881  0.49645  0.91485     O
O      0.79881  0.91485  0.28989     O
N      0.80435  0.18185  0.95703     N
N      0.80435  0.55677  0.18185     N
N      0.80435  0.95703  0.55677     N
C      0.80951  0.10739  0.16637     C
C      0.80951  0.16637  0.41673     C
C      0.80951  0.41673  0.10739     C
H       0.8115   0.7955   0.9895     H
H       0.8115   0.9035   0.7955     H
H       0.8115   0.9895   0.9035     H
C       0.8164   0.3744     0.49     C
C       0.8164     0.49   0.8192     C
C       0.8164   0.8192   0.3744     C
N      0.81815  0.04297  0.19565     N
N      0.81815  0.19565  0.44323     N
N      0.81815  0.44323  0.04297     N
C       0.8192   0.3744   0.8164     C
C       0.8192     0.49   0.3744     C
C       0.8192   0.8164     0.49     C
H       0.8194   0.3746    0.854     H
H       0.8194    0.452   0.3746     H
H       0.8194    0.854    0.452     H
H       0.8232   0.2284   0.8602     H
H       0.8232   0.5882   0.2284     H
H       0.8232   0.8602   0.5882     H
H       0.8242   0.0298   0.5446     H
H       0.8242   0.1014   0.0298     H
H       0.8242   0.5446   0.1014     H
H       0.8306   0.3464   0.5266     H
H       0.8306   0.5266   0.7964     H
H       0.8306   0.7964   0.3464     H
C      0.83363  0.19049  0.89261     C
C      0.83363  0.58327  0.19049     C
C      0.83363  0.89261  0.58327     C
C      0.83389  0.12103  0.98595     C
C      0.83389  0.55913  0.12103     C
C      0.83389  0.98595  0.55913     C
H       0.8449   0.1297   0.6199     H
H       0.8449   0.6199   0.9055     H
H       0.8449   0.9055   0.1297     H
H       0.8464   0.0266   0.2964     H
H       0.8464   0.2964   0.3306     H
H       0.8464   0.3306   0.0266     H
C      0.84754  0.27688  0.98826     C
C      0.84754  0.38732  0.27688     C
C      0.84754  0.98826  0.38732     C
H        0.854   0.3746    0.452     H
H        0.854    0.452   0.8194     H
H        0.854   0.8194   0.3746     H
H       0.8602   0.2284   0.5882     H
H       0.8602   0.5882   0.8232     H
H       0.8602   0.8232   0.2284     H
C       0.8637   0.1161  0.12098     C
C       0.8637  0.12098  0.39922     C
C       0.8637  0.39922   0.1161     C
H       0.8694    0.046   0.5918     H
H       0.8694   0.5918   0.9928     H
H       0.8694   0.9928    0.046     H
H       0.8703   0.0945   0.3801     H
H       0.8703   0.1551   0.0945     H
H       0.8703   0.3801   0.1551     H
C       0.8744   0.3164     0.99     C
C       0.8744   0.3192   0.3164     C
C       0.8744     0.99   0.3192     C
H       0.8746   0.3194    0.354     H
H       0.8746    0.354    0.952     H
H       0.8746    0.952   0.3194     H
C      0.87897  0.01405  0.16611     C
C      0.87897  0.16611  0.44087     C
C      0.87897  0.44087  0.01405     C
C      0.87902   0.1363   0.8839     C
C      0.87902  0.60078   0.1363     C
C      0.87902   0.8839  0.60078     C
N      0.87939  0.09223  0.94297     N
N      0.87939  0.58541  0.09223     N
N      0.87939  0.94297  0.58541     N
H       0.8801   0.3703   0.6551     H
H       0.8801   0.5945   0.3703     H
H       0.8801   0.6551   0.5945     H
O      0.88084  0.22694  0.97896     O
O      0.88084  0.41326  0.22694     O
O      0.88084  0.97896  0.41326     O
C       0.8839   0.1363  0.60078     C
C       0.8839  0.60078  0.87902     C
C       0.8839  0.87902   0.1363     C
C      0.88732  0.34754  0.77688     C
C      0.88732  0.48826  0.34754     C
C      0.88732  0.77688  0.48826     C
C      0.89261  0.19049  0.58327     C
C      0.89261  0.58327  0.83363     C
C      0.89261  0.83363  0.19049     C
H       0.8986   0.1758   0.4554     H
H       0.8986   0.4554   0.9702     H
H       0.8986   0.9702   0.1758     H
C      0.89922   0.3637   0.6161     C
C      0.89922   0.6161  0.62098     C
C      0.89922  0.62098   0.3637     C
H       0.9035   0.7955   0.8115     H
H       0.9035   0.8115   0.9895     H
H       0.9035   0.9895   0.7955     H
H       0.9055   0.1297   0.8449     H
H       0.9055   0.6199   0.1297     H
H       0.9055   0.8449   0.6199     H
N      0.90777  0.05703  0.12061     N
N      0.90777  0.12061  0.41459     N
N      0.90777  0.41459  0.05703     N
H       0.9082    0.454   0.6306     H
H       0.9082   0.5072    0.454     H
H       0.9082   0.6306   0.5072     H
C      0.90933  0.48427  0.59031     C
C      0.90933  0.51609  0.48427     C
C      0.90933  0.59031  0.51609     C
C      0.90969  0.01573  0.59067     C
C      0.90969  0.59067  0.98391     C
C      0.90969  0.98391  0.01573     C
C      0.91019  0.47147  0.54325     C
C      0.91019  0.54325  0.57509     C
C      0.91019  0.57509  0.47147     C
H       0.9111   0.0883   0.2513     H
H       0.9111   0.2493   0.0883     H
H       0.9111   0.2513   0.2493     H
H       0.9117   0.0889   0.7507     H
H       0.9117   0.7487   0.0889     H
H       0.9117   0.7507   0.7487     H
H       0.9118   0.2716   0.6398     H
H       0.9118   0.6398   0.6768     H
H       0.9118   0.6768   0.2716     H
O      0.91326  0.38084  0.72694     O
O      0.91326  0.47896  0.38084     O
O      0.91326  0.72694  0.47896     O
N      0.91459  0.40777  0.55703     N
N      0.91459  0.55703  0.62061     N
N      0.91459  0.62061  0.40777     N
O      0.91485  0.28989  0.79881     O
O      0.91485  0.49645  0.28989     O
O      0.91485  0.79881  0.49645     O
C      0.91673  0.30951  0.60739     C
C      0.91673  0.60739  0.66637     C
C      0.91673  0.66637  0.30951     C
C      0.92491  0.02853  0.95675     C
C      0.92491  0.58981  0.02853     C
C      0.92491  0.95675  0.58981     C
C      0.93937  0.28299  0.99323     C
C      0.93937  0.28441  0.28299     C
C      0.93937  0.99323  0.28441     C
C      0.94087  0.37897  0.51405     C
C      0.94087  0.51405  0.66611     C
C      0.94087  0.66611  0.37897     C
N      0.94297  0.09223  0.58541     N
N      0.94297  0.58541  0.87939     N
N      0.94297  0.87939  0.09223     N
C       0.9431   0.7789   0.7841     C
C       0.9431   0.7841   0.9939     C
C       0.9431   0.9939   0.7789     C
N      0.94323  0.31815  0.54297     N
N      0.94323  0.54297  0.69565     N
N      0.94323  0.69565  0.31815     N
C       0.9468   0.0518   0.2506     C
C       0.9468   0.2506   0.2508     C
C       0.9468   0.2508   0.0518     C
C       0.9482   0.0532   0.7492     C
C       0.9482   0.7492   0.7494     C
C       0.9482   0.7494   0.0532     C
H        0.952   0.3194   0.8746     H
H        0.952    0.354   0.3194     H
H        0.952   0.8746    0.354     H
H        0.954   0.0072   0.4082     H
H        0.954   0.1306   0.0072     H
H        0.954   0.4082   0.1306     H
H       0.9554   0.3986   0.4702     H
H       0.9554   0.4702   0.6758     H
H       0.9554   0.6758   0.3986     H
C      0.95675  0.02853  0.58981     C
C      0.95675  0.58981  0.92491     C
C      0.95675  0.92491  0.02853     C
N      0.95703  0.18185  0.55677     N
N      0.95703  0.55677  0.80435     N
N      0.95703  0.80435  0.18185     N
H       0.9702   0.1758   0.8986     H
H       0.9702   0.4554   0.1758     H
H       0.9702   0.8986   0.4554     H
C      0.97147  0.04325  0.07509     C
C      0.97147  0.07509  0.41019     C
C      0.97147  0.41019  0.04325     C
H       0.9734   0.1536   0.6694     H
H       0.9734   0.6694   0.7036     H
H       0.9734   0.7036   0.1536     H
O      0.97896  0.22694  0.41326     O
O      0.97896  0.41326  0.88084     O
O      0.97896  0.88084  0.22694     O
C      0.98391  0.01573  0.90969     C
C      0.98391  0.59067  0.01573     C
C      0.98391  0.90969  0.59067     C
C      0.98427  0.01609  0.40933     C
C      0.98427  0.09031  0.01609     C
C      0.98427  0.40933  0.09031     C
C      0.98595  0.12103  0.55913     C
C      0.98595  0.55913  0.83389     C
C      0.98595  0.83389  0.12103     C
C      0.98826  0.27688  0.38732     C
C      0.98826  0.38732  0.84754     C
C      0.98826  0.84754  0.27688     C
H       0.9895   0.7955   0.9035     H
H       0.9895   0.8115   0.7955     H
H       0.9895   0.9035   0.8115     H
C         0.99   0.3164   0.3192     C
C         0.99   0.3192   0.8744     C
C         0.99   0.8744   0.3164     C
H       0.9928    0.046   0.8694     H
H       0.9928   0.5918    0.046     H
H       0.9928   0.8694   0.5918     H
C      0.99323  0.28299  0.28441     C
C      0.99323  0.28441  0.93937     C
C      0.99323  0.93937  0.28299     C
C       0.9939   0.7789   0.9431     C
C       0.9939   0.7841   0.7789     C
C       0.9939   0.9431   0.7841     C
O      0.99645  0.29881  0.41485     O
O      0.99645  0.41485  0.78989     O
O      0.99645  0.78989  0.29881     O
Zn     0.99852     0.25  0.50148    Zn
Zn     0.99852  0.50148     0.75    Zn
Zn     0.99852     0.75     0.25    Zn
