data_I
_chemical_name_common  '/home/zhangsd/repos/MofS-CGCNN/ML/data/WS24/clean_cifs/YAHPED'
_cell_length_a 11.24800
_cell_length_b 14.94500
_cell_length_c 16.80100
_cell_angle_alpha 90.00000
_cell_angle_beta  90.00000
_cell_angle_gamma 103.73200
_space_group_name_H-M_alt      'P 1'


loop_
_space_group_symop_operation_xyz
  'x, y, z' 

loop_
_atom_site_label
_atom_site_fract_x
_atom_site_fract_y
_atom_site_fract_z
_atom_site_type_symbol
C          0.0    0.227   0.3765     C
C          0.0    0.273   0.8765     C
C          0.0    0.727   0.1235     C
C          0.0    0.773   0.6235     C
H       0.0013   0.1969   0.2188     H
H       0.0013   0.6969   0.2812     H
C       0.0079   0.1433   0.3309     C
C       0.0079   0.6433   0.1691     C
H       0.0091   0.0629   0.4278     H
O       0.0091   0.3021   0.3427     O
H       0.0091   0.5629   0.0722     H
O       0.0091   0.8021   0.1573     O
C       0.0095   0.1438   0.2473     C
C       0.0095   0.6438   0.2527     C
O       0.0128   0.2775   0.9527     O
O       0.0128   0.7775   0.5473     O
C       0.0144   0.0642   0.3713     C
C       0.0144   0.5642   0.1287     C
Ni     0.01458  0.36709   0.4599    Ni
Ni     0.01458  0.86709   0.0401    Ni
O       0.0148   0.3763   0.5797     O
O       0.0148   0.8763   0.9203     O
C        0.022   0.0621    0.116     C
C        0.022   0.5621    0.384     C
C       0.0231   0.0659   0.2069     C
O       0.0231   0.1062   0.5594     O
C       0.0231   0.5659   0.2931     C
O       0.0231   0.6062   0.9406     O
C       0.0286   0.4861   0.1696     C
C       0.0286   0.9861   0.3304     C
H       0.0308   0.1596   0.5412     H
H       0.0308   0.6596   0.9588     H
C       0.0363   0.4881   0.2529     C
C       0.0363   0.9881   0.2471     C
C       0.0378   0.4017   0.1266     C
C       0.0378   0.9017   0.3734     C
H       0.0504   0.4367   0.2813     H
H       0.0504   0.9367   0.2187     H
O       0.0566   0.4966   0.4153     O
O       0.0566   0.9966   0.0847     O
O       0.0918   0.3472   0.1506     O
O       0.0918   0.8472   0.3494     O
N       0.1726   0.1427    0.956     N
N       0.1726   0.6427    0.544     N
H       0.1728   0.0772   0.8541     H
H       0.1728   0.5772   0.6459     H
H       0.2007    0.314   0.5665     H
H       0.2007    0.814   0.9335     H
N       0.2015   0.3755   0.4642     N
N       0.2015   0.8755   0.0358     N
H       0.2116     0.21   0.0577     H
H       0.2116     0.71   0.4423     H
C       0.2227   0.1026    0.898     C
C       0.2227   0.6026    0.602     C
H       0.2438   0.4403   0.3629     H
H       0.2438   0.9403   0.1371     H
C       0.2449   0.1799   0.0164     C
C       0.2449   0.6799   0.4836     C
C       0.2515   0.3396   0.5231     C
C       0.2515   0.8396   0.9769     C
C       0.2765   0.4119   0.4055     C
C       0.2765   0.9119   0.0945     C
C       0.3427   0.0963   0.8986     C
C       0.3427   0.5963   0.6014     C
C       0.3674   0.1761   0.0212     C
C       0.3674   0.6761   0.4788     C
H       0.3743   0.0673   0.8559     H
H       0.3743   0.5673   0.6441     H
C       0.3752   0.3368   0.5258     C
C       0.3752   0.8368   0.9742     C
C       0.3999   0.4111   0.4023     C
C       0.3999   0.9111   0.0977     C
H       0.4065   0.3112   0.5706     H
H       0.4065   0.8112   0.9294     H
H       0.4162   0.2034   0.0649     H
H       0.4162   0.7034   0.4351     H
C        0.417   0.1328   0.9622     C
C        0.417   0.6328   0.5378     C
H       0.4484    0.438   0.3582     H
H       0.4484    0.938   0.1418     H
C       0.4512   0.3714   0.4628     C
C       0.4512   0.8714   0.0372     C
C       0.5488   0.1286   0.9628     C
C       0.5488   0.6286   0.5372     C
H       0.5516    0.062   0.8582     H
H       0.5516    0.562   0.6418     H
C        0.583   0.3672   0.4622     C
C        0.583   0.8672   0.0378     C
H       0.5838   0.2966   0.5649     H
H       0.5838   0.7966   0.9351     H
H       0.5935   0.1888   0.0706     H
H       0.5935   0.6888   0.4294     H
C       0.6001   0.0889   0.9023     C
C       0.6001   0.5889   0.5977     C
C       0.6248   0.1632   0.0258     C
C       0.6248   0.6632   0.4742     C
H       0.6257   0.4327   0.3559     H
H       0.6257   0.9327   0.1441     H
C       0.6326   0.3239   0.5212     C
C       0.6326   0.8239   0.9788     C
C       0.6573   0.4037   0.3986     C
C       0.6573   0.9037   0.1014     C
C       0.7235   0.0881   0.9055     C
C       0.7235   0.5881   0.5945     C
C       0.7485   0.1604   0.0231     C
C       0.7485   0.6604   0.4769     C
C       0.7551   0.3201   0.5164     C
C       0.7551   0.8201   0.9836     C
H       0.7562   0.0597   0.8629     H
H       0.7562   0.5597   0.6371     H
C       0.7773   0.3974    0.398     C
C       0.7773   0.8974    0.102     C
H       0.7884     0.29   0.5577     H
H       0.7884     0.79   0.9423     H
N       0.7985   0.1245   0.9642     N
N       0.7985   0.6245   0.5358     N
H       0.7993    0.186   0.0665     H
H       0.7993    0.686   0.4335     H
H       0.8272   0.4228   0.3541     H
H       0.8272   0.9228   0.1459     H
N       0.8274   0.3573    0.456     N
N       0.8274   0.8573    0.044     N
O       0.9082   0.1528   0.6506     O
O       0.9082   0.6528   0.8494     O
O       0.9434   0.0034   0.9153     O
O       0.9434   0.5034   0.5847     O
H       0.9496   0.0633   0.7813     H
H       0.9496   0.5633   0.7187     H
C       0.9622   0.0983   0.6266     C
C       0.9622   0.5983   0.8734     C
C       0.9637   0.0119   0.7529     C
C       0.9637   0.5119   0.7471     C
H       0.9692   0.3404   0.0412     H
H       0.9692   0.8404   0.4588     H
C       0.9714   0.0139   0.6696     C
C       0.9714   0.5139   0.8304     C
O       0.9769   0.3938   0.0594     O
C       0.9769   0.4341   0.7069     C
O       0.9769   0.8938   0.4406     O
C       0.9769   0.9341   0.7931     C
C        0.978   0.4379    0.616     C
C        0.978   0.9379    0.884     C
O       0.9852   0.1237   0.0797     O
O       0.9852   0.6237   0.4203     O
Ni     0.98542  0.13291   0.9599    Ni
Ni     0.98542  0.63291   0.5401    Ni
C       0.9856   0.4358   0.8713     C
C       0.9856   0.9358   0.6287     C
O       0.9872   0.2225   0.4527     O
O       0.9872   0.7225   0.0473     O
C       0.9905   0.3562   0.7473     C
C       0.9905   0.8562   0.7527     C
O       0.9909   0.1979   0.8427     O
H       0.9909   0.4371   0.9278     H
O       0.9909   0.6979   0.6573     O
H       0.9909   0.9371   0.5722     H
C       0.9921   0.3567   0.8309     C
C       0.9921   0.8567   0.6691     C
H       0.9987   0.3031   0.7188     H
H       0.9987   0.8031   0.7812     H
