data_I
_chemical_name_common  '/home/zhangsd/repos/MofS-CGCNN/ML/data/WS24/clean_cifs/YEGTEK'
_cell_length_a  8.13240
_cell_length_b 11.34400
_cell_length_c 39.26600
_cell_angle_alpha 90.00000
_cell_angle_beta  90.00000
_cell_angle_gamma 102.90800
_space_group_name_H-M_alt      'P 1'


loop_
_space_group_symop_operation_xyz
  'x, y, z' 

loop_
_atom_site_label
_atom_site_fract_x
_atom_site_fract_y
_atom_site_fract_z
_atom_site_type_symbol
H       0.0004   0.1708   0.5294     H
C       0.0012   0.0452  0.72666     C
C        0.005   0.9124  0.21067     C
H       0.0061   0.8051   0.5574     H
C       0.0098   0.0224  0.66328     C
Cd     0.01126  0.80951  0.12239    Cd
O        0.012   0.5313  0.75215     O
H       0.0209   0.9426   0.4176     H
C       0.0278   0.7766  0.53491     C
H       0.0286   0.9638   0.1907     H
H       0.0307   0.1332   0.9582     H
C       0.0318   0.0126  0.75977     C
C       0.0318    0.832   0.0249     C
C        0.037   0.9802  0.69908     C
H        0.039   0.0468   0.3508     H
H       0.0445   0.8877    0.277     H
H       0.0471   0.2062   0.9925     H
O       0.0646   0.5972      0.7     O
H       0.0684   0.9244   0.3361     H
H       0.0802   0.2556   0.4759     H
C       0.0823   0.6109   0.7318     C
C       0.0855   0.8882  0.48005     C
C       0.0937   0.9097  0.76466     C
Cd     0.09504  0.59544  0.29949    Cd
C       0.1004   0.8775   0.7049     C
H       0.1058   0.8835   0.2158     H
C       0.1096   0.7375  0.04174     C
O       0.1114   0.0406  0.89345     O
H       0.1129   0.8863   0.7867     H
O       0.1203    0.732  0.07315     O
C       0.1222   0.6766  0.53849     C
C       0.1239   0.8821  0.51415     C
H       0.1248    0.833   0.6864     H
C       0.1277   0.8406  0.73757     C
C       0.1356   0.1948  0.79778     C
C       0.1388   0.9786  0.42196     C
H        0.142   0.8665    0.961     H
O       0.1515   0.6172  0.51312     O
O       0.1636   0.6649  0.02236     O
O       0.1637   0.2232  0.82834     O
H       0.1643   0.0602   0.4128     H
C       0.1646   0.9323  0.00874     C
O       0.1703   0.6535  0.56782     O
C       0.1734   0.9812  0.45967     C
C       0.1756   0.0888  0.64804     C
C       0.1948   0.7288  0.74431     C
H       0.1957   0.2611   0.2335     H
C       0.2015   0.9292  0.97439     C
O       0.2077   0.7903  0.40538     O
H       0.2114   0.7224   0.7686     H
O       0.2211   0.2534  0.77411     O
H       0.2271   0.0315   0.0515     H
O       0.2404    0.196  0.65637     O
Cd     0.24072  0.51854  0.05213    Cd
C       0.2478    0.972  0.52844     C
O       0.2492   0.9665  0.12757     O
C       0.2496   0.0962  0.90528     C
C       0.2504   0.9038  0.40528     C
O       0.2508   0.0335  0.62757     O
C       0.2522    0.028  0.02844     C
Cd     0.25928  0.48146  0.55213    Cd
O       0.2596    0.804  0.15637     O
H       0.2729   0.9685   0.5515     H
O       0.2789   0.7466  0.27411     O
H       0.2886   0.2776   0.2686     H
O       0.2923   0.2097  0.90538     O
C       0.2985   0.0708  0.47439     C
H       0.3043   0.7389   0.7335     H
C       0.3052   0.2712  0.24431     C
C       0.3244   0.9112  0.14804     C
C       0.3266   0.0188  0.95967     C
O       0.3297   0.3465  0.06782     O
C       0.3354   0.0677  0.50874     C
H       0.3357   0.9398   0.9128     H
O       0.3363   0.7768  0.32834     O
O       0.3364   0.3351  0.52236     O
O       0.3485   0.3828  0.01312     O
H        0.358   0.1335    0.461     H
C       0.3612   0.0214  0.92196     C
C       0.3644   0.8052  0.29778     C
C       0.3723   0.1594  0.23757     C
H       0.3752    0.167   0.1864     H
C       0.3761   0.1179  0.01415     C
C       0.3778   0.3234  0.03849     C
O       0.3797    0.268  0.57315     O
H       0.3871   0.1137   0.2867     H
O       0.3886   0.9594  0.39345     O
C       0.3904   0.2625  0.54174     C
H       0.3942   0.1165   0.7158     H
C       0.3996   0.1225   0.2049     C
Cd     0.40496  0.40456  0.79949    Cd
C       0.4063   0.0903  0.26466     C
C       0.4145   0.1118  0.98005     C
C       0.4177   0.3891   0.2318     C
H       0.4198   0.7444   0.9759     H
H       0.4316   0.0756   0.8361     H
O       0.4354   0.4028      0.2     O
H       0.4529   0.7938   0.4925     H
H       0.4555   0.1123    0.777     H
H        0.461   0.9532   0.8508     H
C        0.463   0.0198  0.19908     C
C       0.4682    0.168   0.5249     C
C       0.4682   0.9874  0.25977     C
H       0.4693   0.8668   0.4582     H
H       0.4714   0.0362   0.6907     H
C       0.4722   0.2234  0.03491     C
H       0.4791   0.0574   0.9176     H
O        0.488   0.4687  0.25215     O
Cd     0.48874  0.19049  0.62239    Cd
C       0.4902   0.9776  0.16328     C
H       0.4939   0.1949   0.0574     H
C        0.495   0.0876  0.71067     C
C       0.4988   0.9548  0.22666     C
H       0.4996   0.8292   0.0294     H
H       0.5004   0.1708   0.9706     H
C       0.5012   0.0452  0.77334     C
C        0.505   0.9124  0.28933     C
H       0.5061   0.8051   0.9426     H
C       0.5098   0.0224  0.83672     C
Cd     0.51126  0.80951  0.37761    Cd
O        0.512   0.5313  0.74785     O
H       0.5209   0.9426   0.0824     H
C       0.5278   0.7766  0.96509     C
H       0.5286   0.9638   0.3093     H
H       0.5307   0.1332   0.5418     H
C       0.5318   0.0126  0.74023     C
C       0.5318    0.832   0.4751     C
C        0.537   0.9802  0.80092     C
H        0.539   0.0468   0.1492     H
H       0.5445   0.8877    0.223     H
H       0.5471   0.2062   0.5075     H
O       0.5646   0.5972      0.8     O
H       0.5684   0.9244   0.1639     H
H       0.5802   0.2556   0.0241     H
C       0.5823   0.6109   0.7682     C
C       0.5855   0.8882  0.01995     C
C       0.5937   0.9097  0.73534     C
Cd     0.59504  0.59544  0.20051    Cd
C       0.6004   0.8775   0.7951     C
H       0.6058   0.8835   0.2842     H
C       0.6096   0.7375  0.45826     C
O       0.6114   0.0406  0.60655     O
H       0.6129   0.8863   0.7133     H
O       0.6203    0.732  0.42685     O
C       0.6222   0.6766  0.96151     C
C       0.6239   0.8821  0.98585     C
H       0.6248    0.833   0.8136     H
C       0.6277   0.8406  0.76243     C
C       0.6356   0.1948  0.70222     C
C       0.6388   0.9786  0.07804     C
H        0.642   0.8665    0.539     H
O       0.6515   0.6172  0.98688     O
O       0.6636   0.6649  0.47764     O
O       0.6637   0.2232  0.67166     O
H       0.6643   0.0602   0.0872     H
C       0.6646   0.9323  0.49126     C
O       0.6703   0.6535  0.93218     O
C       0.6734   0.9812  0.04033     C
C       0.6756   0.0888  0.85196     C
C       0.6948   0.7288  0.75569     C
H       0.6957   0.2611   0.2665     H
C       0.7015   0.9292  0.52561     C
O       0.7077   0.7903  0.09462     O
H       0.7114   0.7224   0.7314     H
O       0.7211   0.2534  0.72589     O
H       0.7271   0.0315   0.4485     H
O       0.7404    0.196  0.84363     O
Cd     0.74072  0.51854  0.44787    Cd
C       0.7478    0.972  0.97156     C
O       0.7492   0.9665  0.37243     O
C       0.7496   0.0962  0.59472     C
C       0.7504   0.9038  0.09472     C
O       0.7508   0.0335  0.87243     O
C       0.7522    0.028  0.47156     C
Cd     0.75928  0.48146  0.94787    Cd
O       0.7596    0.804  0.34363     O
H       0.7729   0.9685   0.9485     H
O       0.7789   0.7466  0.22589     O
H       0.7886   0.2776   0.2314     H
O       0.7923   0.2097  0.59462     O
C       0.7985   0.0708  0.02561     C
H       0.8043   0.7389   0.7665     H
C       0.8052   0.2712  0.25569     C
C       0.8244   0.9112  0.35196     C
C       0.8266   0.0188  0.54033     C
O       0.8297   0.3465  0.43218     O
C       0.8354   0.0677  0.99126     C
H       0.8357   0.9398   0.5872     H
O       0.8363   0.7768  0.17166     O
O       0.8364   0.3351  0.97764     O
O       0.8485   0.3828  0.48688     O
H        0.858   0.1335    0.039     H
C       0.8612   0.0214  0.57804     C
C       0.8644   0.8052  0.20222     C
C       0.8723   0.1594  0.26243     C
H       0.8752    0.167   0.3136     H
C       0.8761   0.1179  0.48585     C
C       0.8778   0.3234  0.46151     C
O       0.8797    0.268  0.92685     O
H       0.8871   0.1137   0.2133     H
O       0.8886   0.9594  0.10655     O
C       0.8904   0.2625  0.95826     C
H       0.8942   0.1165   0.7842     H
C       0.8996   0.1225   0.2951     C
Cd     0.90496  0.40456  0.70051    Cd
C       0.9063   0.0903  0.23534     C
C       0.9145   0.1118  0.51995     C
C       0.9177   0.3891   0.2682     C
H       0.9198   0.7444   0.5241     H
H       0.9316   0.0756   0.6639     H
O       0.9354   0.4028      0.3     O
H       0.9529   0.7938   0.0075     H
H       0.9555   0.1123    0.723     H
H        0.961   0.9532   0.6492     H
C        0.963   0.0198  0.30092     C
C       0.9682    0.168   0.9751     C
C       0.9682   0.9874  0.24023     C
H       0.9693   0.8668   0.0418     H
H       0.9714   0.0362   0.8093     H
C       0.9722   0.2234  0.46509     C
H       0.9791   0.0574   0.5824     H
O        0.988   0.4687  0.24785     O
Cd     0.98874  0.19049  0.87761    Cd
C       0.9902   0.9776  0.33672     C
H       0.9939   0.1949   0.4426     H
C        0.995   0.0876  0.78933     C
C       0.9988   0.9548  0.27334     C
H       0.9996   0.8292   0.4706     H
