data_I
_chemical_name_common  '/home/zhangsd/repos/MofS-CGCNN/ML/data/WS24/clean_cifs/YEGTAG'
_cell_length_a  4.71430
_cell_length_b 11.73440
_cell_length_c 13.68230
_cell_angle_alpha 67.66600
_cell_angle_beta  89.26900
_cell_angle_gamma 82.09600
_space_group_name_H-M_alt      'P 1'


loop_
_space_group_symop_operation_xyz
  'x, y, z' 

loop_
_atom_site_label
_atom_site_fract_x
_atom_site_fract_y
_atom_site_fract_z
_atom_site_type_symbol
C       0.0062   0.3188   0.4438     C
H       0.0071   0.7703   0.5385     H
O       0.0337   0.2748   0.6277     O
H       0.0719   0.4606   0.7216     H
H       0.0722   0.3233    0.913     H
C       0.0839   0.4865   0.2664     C
H       0.0922   0.7088   0.8403     H
H       0.1042   0.8032   0.7204     H
O       0.1354   0.8718   0.0632     O
C       0.1374   0.3317   0.5391     C
C       0.1397    0.659    0.091     C
O       0.1572   0.9549    0.801     O
C       0.1659   0.3661   0.3431     C
H       0.1916   0.6358   0.5696     H
H       0.2019   0.6614   0.0209     H
C       0.2191   0.7579   0.7874     C
C       0.2303    0.529   0.1722     C
C       0.2584   0.7618   0.1128     C
Ag      0.2698  0.04904  0.06423    Ag
C       0.3211   0.8525   0.8256     C
Ag     0.32599  0.12973  0.78231    Ag
O       0.3316   0.3985   0.5258     O
C       0.3931   0.2908   0.3233     C
H       0.4386   0.5211   0.9069     H
O       0.4481   0.1784   0.1201     O
H       0.4501   0.2095   0.3748     H
C        0.459   0.4502   0.1561     C
C         0.46   0.6696   0.7696     C
O       0.4703   0.7331   0.1757     O
O       0.5297   0.2669   0.8243     O
C         0.54   0.3304   0.2304     C
C        0.541   0.5498   0.8439     C
H       0.5499   0.7905   0.6252     H
O       0.5519   0.8216   0.8799     O
H       0.5614   0.4789   0.0931     H
C       0.6069   0.7092   0.6767     C
O       0.6684   0.6015   0.4742     O
Ag     0.67401  0.87027  0.21769    Ag
C       0.6789   0.1475   0.1744     C
Ag      0.7302  0.95096  0.93577    Ag
C       0.7416   0.2382   0.8872     C
C       0.7697    0.471   0.8278     C
C       0.7809   0.2421   0.2126     C
H       0.7981   0.3386   0.9791     H
H       0.8084   0.3642   0.4304     H
C       0.8341   0.6339   0.6569     C
O       0.8428   0.0451    0.199     O
C       0.8603    0.341    0.909     C
C       0.8626   0.6683   0.4609     C
O       0.8646   0.1282   0.9368     O
H       0.8958   0.1968   0.2796     H
H       0.9078   0.2912   0.1597     H
C       0.9161   0.5135   0.7336     C
H       0.9278   0.6767    0.087     H
H       0.9281   0.5394   0.2784     H
O       0.9663   0.7252   0.3723     O
H       0.9929   0.2297   0.4615     H
C       0.9938   0.6812   0.5562     C
