data_I
_chemical_name_common  '/home/zhangsd/repos/MofS-CGCNN/ML/data/WS24/clean_cifs/YOYQEK'
_cell_length_a 16.97500
_cell_length_b 16.97500
_cell_length_c 13.91700
_cell_angle_alpha 90.00000
_cell_angle_beta  90.00000
_cell_angle_gamma 120.00000
_space_group_name_H-M_alt      'P 1'


loop_
_space_group_symop_operation_xyz
  'x, y, z' 

loop_
_atom_site_label
_atom_site_fract_x
_atom_site_fract_y
_atom_site_fract_z
_atom_site_type_symbol
H       0.0092   0.3235   0.4169     H
H       0.0092   0.6857   0.0831     H
H       0.0115   0.2195   0.0207     H
H       0.0115    0.792   0.4793     H
C        0.034   0.4904   0.3309     C
C        0.034   0.5436   0.1691     C
C       0.0387   0.3378   0.9605     C
C       0.0387   0.7009   0.5395     C
C        0.051    0.282   0.0233     C
C        0.051    0.769   0.4767     C
C       0.0606   0.5035   0.8301     C
C       0.0606   0.5571   0.6699     C
H       0.0657   0.4889   0.3848     H
H       0.0657   0.5768   0.1152     H
C       0.0808   0.5404     0.25     C
C        0.101   0.4304    0.965     C
C        0.101   0.6706    0.535     C
C       0.1083  0.55415     0.75     C
N       0.1119   0.5038   0.9116     N
N       0.1119   0.6081   0.5884     N
C        0.122   0.3174   0.0913     C
C        0.122   0.8046   0.4087     C
H       0.1271   0.2782   0.1341     H
H       0.1271   0.8489   0.3659     H
H       0.1511   0.2782   0.3659     H
H       0.1511   0.8729   0.1341     H
H       0.1716   0.5858     0.75     H
C       0.1742   0.4662   0.0311     C
C       0.1742    0.708   0.4689     C
C       0.1823  0.59115     0.25     C
C       0.1839   0.4091   0.0955     C
C       0.1839   0.7748   0.4045     C
C       0.1894   0.5779   0.9436     C
C       0.1894   0.6115   0.5564     C
C       0.1954   0.3174   0.4087     C
C       0.1954    0.878   0.0913     C
H       0.2012   0.4322   0.3599     H
H       0.2012    0.769   0.1401     H
H        0.208   0.2195   0.4793     H
H        0.208   0.9885   0.0207     H
H       0.2124   0.5767   0.5826     H
H       0.2124   0.6357   0.9174     H
H       0.2195   0.0115   0.5207     H
H       0.2195    0.208   0.9793     H
O       0.2204   0.5755   0.3189     O
O       0.2204   0.6449   0.1811     O
C       0.2252   0.4091   0.4045     C
C       0.2252   0.8161   0.0955     C
N       0.2283   0.5598   0.0148     N
N       0.2283   0.6685   0.4852     N
C        0.231    0.282   0.4767     C
H        0.231   0.4322   0.1401     H
H        0.231   0.7988   0.3599     H
C        0.231    0.949   0.0233     C
H       0.2782   0.1271   0.6341     H
H       0.2782   0.1511   0.8659     H
C        0.282    0.051   0.5233     C
C        0.282    0.231   0.9767     C
C        0.292   0.4662   0.4689     C
C        0.292   0.8258   0.0311     C
C       0.2991   0.3378   0.5395     C
C       0.2991   0.9613   0.9605     C
H       0.3143   0.3235   0.0831     H
H       0.3143   0.9908   0.4169     H
C       0.3174    0.122   0.5913     C
C       0.3174   0.1954   0.9087     C
H       0.3235   0.0092   0.9169     H
H       0.3235   0.3143   0.5831     H
C       0.3294   0.4304    0.535     C
C       0.3294    0.899    0.965     C
N       0.3315   0.5598   0.4852     N
N       0.3315   0.7717   0.0148     N
Co     0.33333  0.66667  0.10339    Co
Co     0.33333  0.66667  0.39661    Co
C       0.3378   0.0387   0.4605     C
C       0.3378   0.2991   0.0395     C
O       0.3551   0.5755   0.1811     O
O       0.3551   0.7796   0.3189     O
H       0.3643   0.5767   0.9174     H
H       0.3643   0.7876   0.5826     H
C       0.3885   0.5779   0.5564     C
C       0.3885   0.8106   0.9436     C
N       0.3919   0.5038   0.5884     N
N       0.3919   0.8881   0.9116     N
C      0.40885  0.59115     0.25     C
C      0.40885   0.8177     0.25     C
C       0.4091   0.1839   0.5955     C
C       0.4091   0.2252   0.9045     C
H       0.4142   0.5858     0.75     H
H       0.4142   0.8284     0.75     H
C       0.4221   0.6115   0.9436     C
C       0.4221   0.8106   0.5564     C
H       0.4232   0.4889   0.1152     H
H       0.4232   0.9343   0.3848     H
H       0.4233   0.6357   0.5826     H
H       0.4233   0.7876   0.9174     H
O       0.4245   0.6449   0.3189     O
O       0.4245   0.7796   0.1811     O
C       0.4304    0.101    0.465     C
C       0.4304   0.3294    0.035     C
H       0.4322   0.2012   0.8599     H
H       0.4322    0.231   0.6401     H
N       0.4402   0.6685   0.0148     N
N       0.4402   0.7717   0.4852     N
C       0.4429   0.5035   0.6699     C
C       0.4429   0.9394   0.8301     C
C      0.44585  0.55415     0.75     C
C      0.44585   0.8917     0.75     C
C       0.4564   0.4904   0.1691     C
C       0.4564    0.966   0.3309     C
C       0.4596   0.5404     0.25     C
C       0.4596   0.9192     0.25     C
C       0.4662   0.1742   0.5311     C
C       0.4662    0.292   0.9689     C
H       0.4889   0.0657   0.8848     H
H       0.4889   0.4232   0.6152     H
C       0.4904    0.034   0.8309     C
C       0.4904   0.4564   0.6691     C
N       0.4962   0.6081   0.9116     N
N       0.4962   0.8881   0.5884     N
C       0.4965   0.5571   0.8301     C
C       0.4965   0.9394   0.6699     C
C       0.5035   0.0606   0.3301     C
C       0.5035   0.4429   0.1699     C
N       0.5038   0.1119   0.4116     N
N       0.5038   0.3919   0.0884     N
C       0.5096   0.5436   0.3309     C
C       0.5096    0.966   0.1691     C
H       0.5111   0.5768   0.3848     H
H       0.5111   0.9343   0.1152     H
C       0.5338    0.708   0.0311     C
C       0.5338   0.8258   0.4689     C
C       0.5404   0.0808     0.75     C
C       0.5404   0.4596     0.75     C
C       0.5436    0.034   0.6691     C
C       0.5436   0.5096   0.8309     C
C      0.55415   0.1083     0.25     C
C      0.55415  0.44585     0.25     C
C       0.5571   0.0606   0.1699     C
C       0.5571   0.4965   0.3301     C
N       0.5598   0.2283   0.5148     N
N       0.5598   0.3315   0.9852     N
H       0.5678    0.769   0.3599     H
H       0.5678   0.7988   0.1401     H
C       0.5696   0.6706    0.965     C
C       0.5696    0.899    0.535     C
O       0.5755   0.2204   0.8189     O
O       0.5755   0.3551   0.6811     O
H       0.5767   0.2124   0.0826     H
H       0.5767   0.3643   0.4174     H
H       0.5768   0.0657   0.6152     H
H       0.5768   0.5111   0.8848     H
C       0.5779   0.1894   0.4436     C
C       0.5779   0.3885   0.0564     C
H       0.5858   0.1716     0.25     H
H       0.5858   0.4142     0.25     H
C       0.5909   0.7748   0.0955     C
C       0.5909   0.8161   0.4045     C
C      0.59115   0.1823     0.75     C
C      0.59115  0.40885     0.75     C
N       0.6081   0.1119   0.0884     N
N       0.6081   0.4962   0.4116     N
C       0.6115   0.1894   0.0564     C
C       0.6115   0.4221   0.4436     C
H       0.6357   0.2124   0.4174     H
H       0.6357   0.4233   0.0826     H
O       0.6449   0.2204   0.6811     O
O       0.6449   0.4245   0.8189     O
C       0.6622   0.7009   0.9605     C
C       0.6622   0.9613   0.5395     C
Co     0.66667  0.33333  0.60339    Co
Co     0.66667  0.33333  0.89661    Co
N       0.6685   0.2283   0.9852     N
N       0.6685   0.4402   0.5148     N
C       0.6706    0.101    0.035     C
C       0.6706   0.5696    0.465     C
H       0.6765   0.6857   0.4169     H
H       0.6765   0.9908   0.0831     H
C       0.6826   0.8046   0.0913     C
C       0.6826    0.878   0.4087     C
H       0.6857   0.0092   0.5831     H
H       0.6857   0.6765   0.9169     H
C       0.7009   0.0387   0.0395     C
C       0.7009   0.6622   0.4605     C
C        0.708   0.1742   0.9689     C
C        0.708   0.5338   0.5311     C
C        0.718    0.769   0.0233     C
C        0.718    0.949   0.4767     C
H       0.7218   0.8489   0.1341     H
H       0.7218   0.8729   0.3659     H
C        0.769    0.051   0.9767     C
H        0.769   0.2012   0.6401     H
H        0.769   0.5678   0.8599     H
C        0.769    0.718   0.5233     C
N       0.7717   0.3315   0.5148     N
N       0.7717   0.4402   0.9852     N
C       0.7748   0.1839   0.9045     C
C       0.7748   0.5909   0.5955     C
O       0.7796   0.3551   0.8189     O
O       0.7796   0.4245   0.6811     O
H       0.7805    0.792   0.0207     H
H       0.7805   0.9885   0.4793     H
H       0.7876   0.3643   0.0826     H
H       0.7876   0.4233   0.4174     H
H        0.792   0.0115   0.9793     H
H        0.792   0.7805   0.5207     H
H       0.7988    0.231   0.8599     H
H       0.7988   0.5678   0.6401     H
C       0.8046    0.122   0.9087     C
C       0.8046   0.6826   0.5913     C
C       0.8106   0.3885   0.4436     C
C       0.8106   0.4221   0.0564     C
C       0.8161   0.2252   0.5955     C
C       0.8161   0.5909   0.9045     C
C       0.8177  0.40885     0.75     C
C       0.8258    0.292   0.5311     C
C       0.8258   0.5338   0.9689     C
H       0.8284   0.4142     0.25     H
H       0.8489   0.1271   0.8659     H
H       0.8489   0.7218   0.6341     H
H       0.8729   0.1511   0.6341     H
H       0.8729   0.7218   0.8659     H
C        0.878   0.1954   0.5913     C
C        0.878   0.6826   0.9087     C
N       0.8881   0.3919   0.4116     N
N       0.8881   0.4962   0.0884     N
C       0.8917  0.44585     0.25     C
C        0.899   0.3294    0.465     C
C        0.899   0.5696    0.035     C
C       0.9192   0.4596     0.75     C
H       0.9343   0.4232   0.8848     H
H       0.9343   0.5111   0.6152     H
C       0.9394   0.4429   0.3301     C
C       0.9394   0.4965   0.1699     C
C        0.949    0.231   0.5233     C
C        0.949    0.718   0.9767     C
C       0.9613   0.2991   0.4605     C
C       0.9613   0.6622   0.0395     C
C        0.966   0.4564   0.8309     C
C        0.966   0.5096   0.6691     C
H       0.9885    0.208   0.5207     H
H       0.9885   0.7805   0.9793     H
H       0.9908   0.3143   0.9169     H
H       0.9908   0.6765   0.5831     H
