data_I
_chemical_name_common  '/home/zhangsd/repos/MofS-CGCNN/ML/data/WS24/clean_cifs/YOYZUJ'
_cell_length_a 32.40388
_cell_length_b 32.40388
_cell_length_c 32.40388
_cell_angle_alpha 60.00000
_cell_angle_beta  60.00000
_cell_angle_gamma 60.00000
_space_group_name_H-M_alt      'P 1'


loop_
_space_group_symop_operation_xyz
  'x, y, z' 

loop_
_atom_site_label
_atom_site_fract_x
_atom_site_fract_y
_atom_site_fract_z
_atom_site_type_symbol
N      0.00142  0.28492  0.54642     N
N      0.00142  0.28492  0.66724     N
N      0.00142  0.54642  0.28492     N
N      0.00142  0.54642  0.66724     N
N      0.00142  0.66724  0.28492     N
N      0.00142  0.66724  0.54642     N
C      0.00176  0.25204  0.52636     C
C      0.00176  0.25204  0.71984     C
C      0.00176  0.52636  0.25204     C
C      0.00176  0.52636  0.71984     C
C      0.00176  0.71984  0.25204     C
C      0.00176  0.71984  0.52636     C
Ag    0.006947 0.235635 0.628709    Ag
Ag    0.006947 0.628709 0.235635    Ag
Ag    0.006947 0.628709 0.628709    Ag
C       0.0159   0.1368   0.1368     C
C       0.0159   0.1368   0.2105     C
C       0.0159   0.2105   0.1368     C
H       0.0269   0.2615   0.4507     H
H       0.0269   0.2615   0.7609     H
H       0.0269   0.4507   0.2615     H
H       0.0269   0.4507   0.7609     H
H       0.0269   0.7609   0.2615     H
H       0.0269   0.7609   0.4507     H
H       0.0284   0.0994   0.1488     H
H       0.0284   0.0994   0.2234     H
H       0.0284   0.1488   0.0994     H
H       0.0284   0.1488   0.2234     H
H       0.0284   0.2234   0.0994     H
H       0.0284   0.2234   0.1488     H
H       0.0334   0.2226   0.5254     H
H       0.0334   0.2226   0.7186     H
H       0.0334   0.5254   0.2226     H
H       0.0334   0.5254   0.7186     H
H       0.0334   0.7186   0.2226     H
H       0.0334   0.7186   0.5254     H
N      0.03551  0.15483  0.15483     N
H       0.0377   0.2659   0.3479     H
H       0.0377   0.2659   0.8485     H
H       0.0377   0.3479   0.2659     H
H       0.0377   0.3479   0.8485     H
H       0.0377   0.8485   0.2659     H
H       0.0377   0.8485   0.3479     H
C      0.04154  0.77026   0.8441     C
C      0.04154   0.8441  0.77026     C
C      0.04154   0.8441   0.8441     C
H       0.0434   0.3658   0.4448     H
H       0.0434   0.3658    0.646     H
H       0.0434   0.4448   0.3658     H
H       0.0434   0.4448    0.646     H
H       0.0434    0.646   0.3658     H
H       0.0434    0.646   0.4448     H
C      0.04447  0.33109  0.45511     C
C      0.04447  0.33109  0.66933     C
C      0.04447  0.45511  0.33109     C
C      0.04447  0.45511  0.66933     C
C      0.04447  0.66933  0.33109     C
C      0.04447  0.66933  0.45511     C
C      0.04731  0.30071  0.50989     C
C      0.04731  0.30071  0.64209     C
C      0.04731  0.50989  0.30071     C
C      0.04731  0.50989  0.64209     C
C      0.04731  0.64209  0.30071     C
C      0.04731  0.64209  0.50989     C
H       0.0502   0.3218   0.5216     H
H       0.0502   0.3218   0.6064     H
H       0.0502   0.5216   0.3218     H
H       0.0502   0.5216   0.6064     H
H       0.0502   0.6064   0.3218     H
H       0.0502   0.6064   0.5216     H
H       0.0529   0.1201   0.6251     H
H       0.0529   0.1201   0.7019     H
H       0.0529   0.6251   0.1201     H
H       0.0529   0.6251   0.7019     H
H       0.0529   0.7019   0.1201     H
H       0.0529   0.7019   0.6251     H
H       0.0538   0.7488    0.824     H
H       0.0538   0.7488   0.8734     H
H       0.0538    0.824   0.7488     H
H       0.0538    0.824   0.8734     H
H       0.0538   0.8734   0.7488     H
H       0.0538   0.8734    0.824     H
N      0.06316  0.81228  0.81228     N
N      0.06728   0.3212   0.3212     N
N      0.06728   0.3212  0.79032     N
N      0.06728  0.79032   0.3212     N
C      0.06939  0.26717  0.34421     C
C      0.06939  0.26717  0.81923     C
C      0.06939  0.34421  0.26717     C
C      0.06939  0.34421  0.81923     C
C      0.06939  0.81923  0.26717     C
C      0.06939  0.81923  0.34421     C
H       0.0719   0.2527   0.3783     H
H       0.0719   0.2527   0.7971     H
H       0.0719   0.3783   0.2527     H
H       0.0719   0.3783   0.7971     H
H       0.0719   0.7971   0.2527     H
H       0.0719   0.7971   0.3783     H
H       0.0751   0.3147   0.4311     H
H       0.0751   0.3147   0.6791     H
H       0.0751   0.4311   0.3147     H
H       0.0751   0.4311   0.6791     H
H       0.0751   0.6791   0.3147     H
H       0.0751   0.6791   0.4311     H
H        0.078   0.2702   0.5094     H
H        0.078   0.2702   0.6424     H
H        0.078   0.5094   0.2702     H
H        0.078   0.5094   0.6424     H
H        0.078   0.6424   0.2702     H
H        0.078   0.6424   0.5094     H
N      0.08155  0.16327  0.62759     N
N      0.08155  0.62759  0.16327     N
N      0.08155  0.62759  0.62759     N
H       0.0831   0.1503   0.5701     H
H       0.0831   0.1503   0.6965     H
H       0.0831   0.5701   0.1503     H
H       0.0831   0.5701   0.6965     H
H       0.0831   0.6965   0.1503     H
H       0.0831   0.6965   0.5701     H
C      0.08338  0.13032  0.60518     C
C      0.08338  0.13032  0.68112     C
C      0.08338  0.60518  0.13032     C
C      0.08338  0.60518  0.68112     C
C      0.08338  0.68112  0.13032     C
C      0.08338  0.68112  0.60518     C
H       0.0994   0.0284   0.1488     H
H       0.0994   0.0284   0.2234     H
H       0.0994   0.1488   0.0284     H
H       0.0994   0.1488   0.2234     H
H       0.0994   0.2234   0.0284     H
H       0.0994   0.2234   0.1488     H
H       0.1032   0.2216    0.299     H
H       0.1032   0.2216   0.8762     H
H       0.1032    0.299   0.2216     H
H       0.1032    0.299   0.8762     H
H       0.1032   0.8762   0.2216     H
H       0.1032   0.8762    0.299     H
C      0.11474  0.31918  0.31918     C
C      0.11474  0.31918   0.7469     C
C      0.11474   0.7469  0.31918     C
C      0.11544  0.23494  0.31096     C
C      0.11544  0.23494  0.83866     C
C      0.11544  0.31096  0.23494     C
C      0.11544  0.31096  0.83866     C
C      0.11544  0.83866  0.23494     C
C      0.11544  0.83866  0.31096     C
H       0.1156   0.3046    0.354     H
H       0.1156   0.3046   0.7258     H
H       0.1156    0.354   0.3046     H
H       0.1156    0.354   0.7258     H
H       0.1156   0.7258   0.3046     H
H       0.1156   0.7258    0.354     H
H       0.1201   0.0529   0.6251     H
H       0.1201   0.0529   0.7019     H
H       0.1201   0.6251   0.0529     H
H       0.1201   0.6251   0.7019     H
H       0.1201   0.7019   0.0529     H
H       0.1201   0.7019   0.6251     H
H       0.1238    0.701   0.7784     H
H       0.1238    0.701   0.8968     H
H       0.1238   0.7784    0.701     H
H       0.1238   0.7784   0.8968     H
H       0.1238   0.8968    0.701     H
H       0.1238   0.8968   0.7784     H
Ag       0.125    0.125    0.125    Ag
H       0.1266    0.176   0.2512     H
H       0.1266    0.176   0.9462     H
H       0.1266   0.2512    0.176     H
H       0.1266   0.2512   0.9462     H
H       0.1266   0.9462    0.176     H
H       0.1266   0.9462   0.2512     H
C      0.12893  0.17593  0.59757     C
C      0.12893  0.59757  0.17593     C
C      0.12893  0.59757  0.59757     C
H       0.1295   0.1965   0.5623     H
H       0.1295   0.1965   0.6117     H
H       0.1295   0.5623   0.1965     H
H       0.1295   0.5623   0.6117     H
H       0.1295   0.6117   0.1965     H
H       0.1295   0.6117   0.5623     H
C      0.13032  0.08338  0.60518     C
C      0.13032  0.08338  0.68112     C
C      0.13032  0.60518  0.08338     C
C      0.13032  0.60518  0.68112     C
C      0.13032  0.68112  0.08338     C
C      0.13032  0.68112  0.60518     C
H       0.1365   0.2059   0.3315     H
H       0.1365   0.2059   0.8261     H
H       0.1365   0.3315   0.2059     H
H       0.1365   0.3315   0.8261     H
H       0.1365   0.8261   0.2059     H
H       0.1365   0.8261   0.3315     H
C       0.1368   0.0159   0.1368     C
C       0.1368   0.0159   0.2105     C
C       0.1368   0.1368   0.0159     C
C       0.1368   0.1368   0.2105     C
C       0.1368   0.2105   0.0159     C
C       0.1368   0.2105   0.1368     C
N      0.14641  0.26651  0.26651     N
N      0.14641  0.26651  0.82057     N
N      0.14641  0.82057  0.26651     N
H       0.1488   0.0284   0.0994     H
H       0.1488   0.0284   0.2234     H
H       0.1488   0.0994   0.0284     H
H       0.1488   0.0994   0.2234     H
H       0.1488   0.2234   0.0284     H
H       0.1488   0.2234   0.0994     H
H       0.1503   0.0831   0.5701     H
H       0.1503   0.0831   0.6965     H
H       0.1503   0.5701   0.0831     H
H       0.1503   0.5701   0.6965     H
H       0.1503   0.6965   0.0831     H
H       0.1503   0.6965   0.5701     H
H       0.1515   0.6521   0.7341     H
H       0.1515   0.6521   0.9623     H
H       0.1515   0.7341   0.6521     H
H       0.1515   0.7341   0.9623     H
H       0.1515   0.9623   0.6521     H
H       0.1515   0.9623   0.7341     H
Ag    0.152989 0.782337 0.782337    Ag
N      0.15483  0.03551  0.15483     N
N      0.15483  0.15483  0.03551     N
N      0.15483  0.15483  0.15483     N
C       0.1559   0.1559  0.22974     C
C       0.1559   0.1559  0.95846     C
C       0.1559  0.22974   0.1559     C
C       0.1559  0.22974  0.95846     C
C       0.1559  0.95846   0.1559     C
C       0.1559  0.95846  0.22974     C
C      0.16134  0.68904  0.76506     C
C      0.16134  0.68904  0.88456     C
C      0.16134  0.76506  0.68904     C
C      0.16134  0.76506  0.88456     C
C      0.16134  0.88456  0.68904     C
C      0.16134  0.88456  0.76506     C
C      0.16162   0.2873   0.2873     C
C      0.16162   0.2873  0.76378     C
C      0.16162  0.76378   0.2873     C
N      0.16327  0.08155  0.62759     N
N      0.16327  0.62759  0.08155     N
N      0.16327  0.62759  0.62759     N
H       0.1739   0.6685   0.7941     H
H       0.1739   0.6685   0.8635     H
H       0.1739   0.7941   0.6685     H
H       0.1739   0.7941   0.8635     H
H       0.1739   0.8635   0.6685     H
H       0.1739   0.8635   0.7941     H
C      0.17593  0.12893  0.59757     C
C      0.17593  0.59757  0.12893     C
C      0.17593  0.59757  0.59757     C
H        0.176   0.1266   0.2512     H
H        0.176   0.1266   0.9462     H
H        0.176   0.2512   0.1266     H
H        0.176   0.2512   0.9462     H
H        0.176   0.9462   0.1266     H
H        0.176   0.9462   0.2512     H
N      0.17943  0.73349  0.73349     N
N      0.17943  0.73349  0.85359     N
N      0.17943  0.85359  0.73349     N
C      0.18077  0.65579  0.73283     C
C      0.18077  0.65579  0.93061     C
C      0.18077  0.73283  0.65579     C
C      0.18077  0.73283  0.93061     C
C      0.18077  0.93061  0.65579     C
C      0.18077  0.93061  0.73283     C
H       0.1823   0.2591   0.3085     H
H       0.1823   0.2591   0.7501     H
H       0.1823   0.3085   0.2591     H
H       0.1823   0.3085   0.7501     H
H       0.1823   0.7501   0.2591     H
H       0.1823   0.7501   0.3085     H
N      0.18772  0.18772  0.18772     N
N      0.18772  0.18772  0.93684     N
N      0.18772  0.93684  0.18772     N
H       0.1965   0.1295   0.5623     H
H       0.1965   0.1295   0.6117     H
H       0.1965   0.5623   0.1295     H
H       0.1965   0.5623   0.6117     H
H       0.1965   0.6117   0.1295     H
H       0.1965   0.6117   0.5623     H
H       0.2029   0.6217   0.7473     H
H       0.2029   0.6217   0.9281     H
H       0.2029   0.7473   0.6217     H
H       0.2029   0.7473   0.9281     H
H       0.2029   0.9281   0.6217     H
H       0.2029   0.9281   0.7473     H
H       0.2059   0.1365   0.3315     H
H       0.2059   0.1365   0.8261     H
H       0.2059   0.3315   0.1365     H
H       0.2059   0.3315   0.8261     H
H       0.2059   0.8261   0.1365     H
H       0.2059   0.8261   0.3315     H
N      0.20968   0.6788   0.6788     N
N      0.20968   0.6788  0.93272     N
N      0.20968  0.93272   0.6788     N
C       0.2105   0.0159   0.1368     C
C       0.2105   0.1368   0.0159     C
C       0.2105   0.1368   0.1368     C
Ag    0.217663 0.217663 0.217663    Ag
Ag    0.217663 0.217663 0.847011    Ag
Ag    0.217663 0.847011 0.217663    Ag
H       0.2216   0.1032    0.299     H
H       0.2216   0.1032   0.8762     H
H       0.2216    0.299   0.1032     H
H       0.2216    0.299   0.8762     H
H       0.2216   0.8762   0.1032     H
H       0.2216   0.8762    0.299     H
H       0.2226   0.0334   0.5254     H
H       0.2226   0.0334   0.7186     H
H       0.2226   0.5254   0.0334     H
H       0.2226   0.5254   0.7186     H
H       0.2226   0.7186   0.0334     H
H       0.2226   0.7186   0.5254     H
H       0.2234   0.0284   0.0994     H
H       0.2234   0.0284   0.1488     H
H       0.2234   0.0994   0.0284     H
H       0.2234   0.0994   0.1488     H
H       0.2234   0.1488   0.0284     H
H       0.2234   0.1488   0.0994     H
C      0.22974   0.1559   0.1559     C
C      0.22974   0.1559  0.95846     C
C      0.22974  0.95846   0.1559     C
C      0.23494  0.11544  0.31096     C
C      0.23494  0.11544  0.83866     C
C      0.23494  0.31096  0.11544     C
C      0.23494  0.31096  0.83866     C
C      0.23494  0.83866  0.11544     C
C      0.23494  0.83866  0.31096     C
Ag    0.235635 0.006947 0.628709    Ag
Ag    0.235635 0.628709 0.006947    Ag
Ag    0.235635 0.628709 0.628709    Ag
C      0.23622   0.7127   0.7127     C
C      0.23622   0.7127  0.83838     C
C      0.23622  0.83838   0.7127     C
H       0.2391   0.5493   0.7385     H
H       0.2391   0.5493   0.9731     H
H       0.2391   0.7385   0.5493     H
H       0.2391   0.7385   0.9731     H
H       0.2391   0.9731   0.5493     H
H       0.2391   0.9731   0.7385     H
H       0.2499   0.6915   0.7409     H
H       0.2499   0.6915   0.8177     H
H       0.2499   0.7409   0.6915     H
H       0.2499   0.7409   0.8177     H
H       0.2499   0.8177   0.6915     H
H       0.2499   0.8177   0.7409     H
H       0.2512   0.1266    0.176     H
H       0.2512   0.1266   0.9462     H
H       0.2512    0.176   0.1266     H
H       0.2512    0.176   0.9462     H
H       0.2512   0.9462   0.1266     H
H       0.2512   0.9462    0.176     H
C      0.25204  0.00176  0.52636     C
C      0.25204  0.00176  0.71984     C
C      0.25204  0.52636  0.00176     C
C      0.25204  0.52636  0.71984     C
C      0.25204  0.71984  0.00176     C
C      0.25204  0.71984  0.52636     C
H       0.2527   0.0719   0.3783     H
H       0.2527   0.0719   0.7971     H
H       0.2527   0.3783   0.0719     H
H       0.2527   0.3783   0.7971     H
H       0.2527   0.7971   0.0719     H
H       0.2527   0.7971   0.3783     H
C       0.2531  0.68082  0.68082     C
C       0.2531  0.68082  0.88526     C
C       0.2531  0.88526  0.68082     C
H       0.2591   0.1823   0.3085     H
H       0.2591   0.1823   0.7501     H
H       0.2591   0.3085   0.1823     H
H       0.2591   0.3085   0.7501     H
H       0.2591   0.7501   0.1823     H
H       0.2591   0.7501   0.3085     H
H       0.2615   0.0269   0.4507     H
H       0.2615   0.0269   0.7609     H
H       0.2615   0.4507   0.0269     H
H       0.2615   0.4507   0.7609     H
H       0.2615   0.7609   0.0269     H
H       0.2615   0.7609   0.4507     H
H       0.2659   0.0377   0.3479     H
H       0.2659   0.0377   0.8485     H
H       0.2659   0.3479   0.0377     H
H       0.2659   0.3479   0.8485     H
H       0.2659   0.8485   0.0377     H
H       0.2659   0.8485   0.3479     H
N      0.26651  0.14641  0.26651     N
N      0.26651  0.14641  0.82057     N
N      0.26651  0.26651  0.14641     N
N      0.26651  0.26651  0.82057     N
N      0.26651  0.82057  0.14641     N
N      0.26651  0.82057  0.26651     N
C      0.26717  0.06939  0.34421     C
C      0.26717  0.06939  0.81923     C
C      0.26717  0.34421  0.06939     C
C      0.26717  0.34421  0.81923     C
C      0.26717  0.81923  0.06939     C
C      0.26717  0.81923  0.34421     C
H       0.2702    0.078   0.5094     H
H       0.2702    0.078   0.6424     H
H       0.2702   0.5094    0.078     H
H       0.2702   0.5094   0.6424     H
H       0.2702   0.6424    0.078     H
H       0.2702   0.6424   0.5094     H
H       0.2742    0.646   0.6954     H
H       0.2742    0.646   0.8844     H
H       0.2742   0.6954    0.646     H
H       0.2742   0.6954   0.8844     H
H       0.2742   0.8844    0.646     H
H       0.2742   0.8844   0.6954     H
C      0.28016  0.47364  0.74796     C
C      0.28016  0.47364  0.99824     C
C      0.28016  0.74796  0.47364     C
C      0.28016  0.74796  0.99824     C
C      0.28016  0.99824  0.47364     C
C      0.28016  0.99824  0.74796     C
H       0.2814   0.4746   0.7774     H
H       0.2814   0.4746   0.9666     H
H       0.2814   0.7774   0.4746     H
H       0.2814   0.7774   0.9666     H
H       0.2814   0.9666   0.4746     H
H       0.2814   0.9666   0.7774     H
N      0.28492  0.00142  0.54642     N
N      0.28492  0.00142  0.66724     N
N      0.28492  0.54642  0.00142     N
N      0.28492  0.54642  0.66724     N
N      0.28492  0.66724  0.00142     N
N      0.28492  0.66724  0.54642     N
C       0.2873  0.16162   0.2873     C
C       0.2873  0.16162  0.76378     C
C       0.2873   0.2873  0.16162     C
C       0.2873   0.2873  0.76378     C
C       0.2873  0.76378  0.16162     C
C       0.2873  0.76378   0.2873     C
H       0.2981   0.3749   0.8799     H
H       0.2981   0.3749   0.9471     H
H       0.2981   0.8799   0.3749     H
H       0.2981   0.8799   0.9471     H
H       0.2981   0.9471   0.3749     H
H       0.2981   0.9471   0.8799     H
H        0.299   0.1032   0.2216     H
H        0.299   0.1032   0.8762     H
H        0.299   0.2216   0.1032     H
H        0.299   0.2216   0.8762     H
H        0.299   0.8762   0.1032     H
H        0.299   0.8762   0.2216     H
C      0.30071  0.04731  0.50989     C
C      0.30071  0.04731  0.64209     C
C      0.30071  0.50989  0.04731     C
C      0.30071  0.50989  0.64209     C
C      0.30071  0.64209  0.04731     C
C      0.30071  0.64209  0.50989     C
H       0.3035   0.4299   0.8497     H
H       0.3035   0.4299   0.9169     H
H       0.3035   0.8497   0.4299     H
H       0.3035   0.8497   0.9169     H
H       0.3035   0.9169   0.4299     H
H       0.3035   0.9169   0.8497     H
H       0.3046   0.1156    0.354     H
H       0.3046   0.1156   0.7258     H
H       0.3046    0.354   0.1156     H
H       0.3046    0.354   0.7258     H
H       0.3046   0.7258   0.1156     H
H       0.3046   0.7258    0.354     H
H       0.3085   0.1823   0.2591     H
H       0.3085   0.1823   0.7501     H
H       0.3085   0.2591   0.1823     H
H       0.3085   0.2591   0.7501     H
H       0.3085   0.7501   0.1823     H
H       0.3085   0.7501   0.2591     H
C      0.31096  0.11544  0.23494     C
C      0.31096  0.11544  0.83866     C
C      0.31096  0.23494  0.11544     C
C      0.31096  0.23494  0.83866     C
C      0.31096  0.83866  0.11544     C
C      0.31096  0.83866  0.23494     C
H       0.3147   0.0751   0.4311     H
H       0.3147   0.0751   0.6791     H
H       0.3147   0.4311   0.0751     H
H       0.3147   0.4311   0.6791     H
H       0.3147   0.6791   0.0751     H
H       0.3147   0.6791   0.4311     H
C      0.31888  0.39482  0.86968     C
C      0.31888  0.39482  0.91662     C
C      0.31888  0.86968  0.39482     C
C      0.31888  0.86968  0.91662     C
C      0.31888  0.91662  0.39482     C
C      0.31888  0.91662  0.86968     C
C      0.31918  0.11474  0.31918     C
C      0.31918  0.11474   0.7469     C
C      0.31918  0.31918  0.11474     C
C      0.31918  0.31918   0.7469     C
C      0.31918   0.7469  0.11474     C
C      0.31918   0.7469  0.31918     C
H       0.3209   0.5689   0.6853     H
H       0.3209   0.5689   0.9249     H
H       0.3209   0.6853   0.5689     H
H       0.3209   0.6853   0.9249     H
H       0.3209   0.9249   0.5689     H
H       0.3209   0.9249   0.6853     H
N       0.3212  0.06728   0.3212     N
N       0.3212  0.06728  0.79032     N
N       0.3212   0.3212  0.06728     N
N       0.3212   0.3212  0.79032     N
N       0.3212  0.79032  0.06728     N
N       0.3212  0.79032   0.3212     N
H       0.3218   0.0502   0.5216     H
H       0.3218   0.0502   0.6064     H
H       0.3218   0.5216   0.0502     H
H       0.3218   0.5216   0.6064     H
H       0.3218   0.6064   0.0502     H
H       0.3218   0.6064   0.5216     H
C      0.33067  0.54489  0.66891     C
C      0.33067  0.54489  0.95553     C
C      0.33067  0.66891  0.54489     C
C      0.33067  0.66891  0.95553     C
C      0.33067  0.95553  0.54489     C
C      0.33067  0.95553  0.66891     C
C      0.33109  0.04447  0.45511     C
C      0.33109  0.04447  0.66933     C
C      0.33109  0.45511  0.04447     C
C      0.33109  0.45511  0.66933     C
C      0.33109  0.66933  0.04447     C
C      0.33109  0.66933  0.45511     C
H       0.3315   0.1365   0.2059     H
H       0.3315   0.1365   0.8261     H
H       0.3315   0.2059   0.1365     H
H       0.3315   0.2059   0.8261     H
H       0.3315   0.8261   0.1365     H
H       0.3315   0.8261   0.2059     H
N      0.33276  0.45358  0.71508     N
N      0.33276  0.45358  0.99858     N
N      0.33276  0.71508  0.45358     N
N      0.33276  0.71508  0.99858     N
N      0.33276  0.99858  0.45358     N
N      0.33276  0.99858  0.71508     N
C      0.34421  0.06939  0.26717     C
C      0.34421  0.06939  0.81923     C
C      0.34421  0.26717  0.06939     C
C      0.34421  0.26717  0.81923     C
C      0.34421  0.81923  0.06939     C
C      0.34421  0.81923  0.26717     C
H       0.3479   0.0377   0.2659     H
H       0.3479   0.0377   0.8485     H
H       0.3479   0.2659   0.0377     H
H       0.3479   0.2659   0.8485     H
H       0.3479   0.8485   0.0377     H
H       0.3479   0.8485   0.2659     H
H        0.354   0.1156   0.3046     H
H        0.354   0.1156   0.7258     H
H        0.354   0.3046   0.1156     H
H        0.354   0.3046   0.7258     H
H        0.354   0.5552   0.6342     H
H        0.354   0.5552   0.9566     H
H        0.354   0.6342   0.5552     H
H        0.354   0.6342   0.9566     H
H        0.354   0.7258   0.1156     H
H        0.354   0.7258   0.3046     H
H        0.354   0.9566   0.5552     H
H        0.354   0.9566   0.6342     H
H       0.3576   0.4906   0.7298     H
H       0.3576   0.4906    0.922     H
H       0.3576   0.7298   0.4906     H
H       0.3576   0.7298    0.922     H
H       0.3576    0.922   0.4906     H
H       0.3576    0.922   0.7298     H
C      0.35791  0.49011  0.69929     C
C      0.35791  0.49011  0.95269     C
C      0.35791  0.69929  0.49011     C
C      0.35791  0.69929  0.95269     C
C      0.35791  0.95269  0.49011     C
C      0.35791  0.95269  0.69929     C
H       0.3658   0.0434   0.4448     H
H       0.3658   0.0434    0.646     H
H       0.3658   0.4448   0.0434     H
H       0.3658   0.4448    0.646     H
H       0.3658    0.646   0.0434     H
H       0.3658    0.646   0.4448     H
Ag    0.371291 0.371291 0.764365    Ag
Ag    0.371291 0.371291 0.993053    Ag
Ag    0.371291 0.764365 0.371291    Ag
Ag    0.371291 0.764365 0.993053    Ag
Ag    0.371291 0.993053 0.371291    Ag
Ag    0.371291 0.993053 0.764365    Ag
N      0.37241  0.37241  0.83673     N
N      0.37241  0.37241  0.91845     N
N      0.37241  0.83673  0.37241     N
N      0.37241  0.83673  0.91845     N
N      0.37241  0.91845  0.37241     N
N      0.37241  0.91845  0.83673     N
H       0.3749   0.2981   0.8799     H
H       0.3749   0.2981   0.9471     H
H       0.3749   0.8799   0.2981     H
H       0.3749   0.8799   0.9471     H
H       0.3749   0.9471   0.2981     H
H       0.3749   0.9471   0.8799     H
H       0.3783   0.0719   0.2527     H
H       0.3783   0.0719   0.7971     H
H       0.3783   0.2527   0.0719     H
H       0.3783   0.2527   0.7971     H
H       0.3783   0.7971   0.0719     H
H       0.3783   0.7971   0.2527     H
H       0.3883   0.4377   0.8035     H
H       0.3883   0.4377   0.8705     H
H       0.3883   0.8035   0.4377     H
H       0.3883   0.8035   0.8705     H
H       0.3883   0.8705   0.4377     H
H       0.3883   0.8705   0.8035     H
H       0.3936   0.4784   0.6782     H
H       0.3936   0.4784   0.9498     H
H       0.3936   0.6782   0.4784     H
H       0.3936   0.6782   0.9498     H
H       0.3936   0.9498   0.4784     H
H       0.3936   0.9498   0.6782     H
C      0.39482  0.31888  0.86968     C
C      0.39482  0.31888  0.91662     C
C      0.39482  0.86968  0.31888     C
C      0.39482  0.86968  0.91662     C
C      0.39482  0.91662  0.31888     C
C      0.39482  0.91662  0.86968     C
C      0.40243  0.40243  0.82407     C
C      0.40243  0.40243  0.87107     C
C      0.40243  0.82407  0.40243     C
C      0.40243  0.82407  0.87107     C
C      0.40243  0.87107  0.40243     C
C      0.40243  0.87107  0.82407     C
H       0.4299   0.3035   0.8497     H
H       0.4299   0.3035   0.9169     H
H       0.4299   0.8497   0.3035     H
H       0.4299   0.8497   0.9169     H
H       0.4299   0.9169   0.3035     H
H       0.4299   0.9169   0.8497     H
H       0.4311   0.0751   0.3147     H
H       0.4311   0.0751   0.6791     H
H       0.4311   0.3147   0.0751     H
H       0.4311   0.3147   0.6791     H
H       0.4311   0.6791   0.0751     H
H       0.4311   0.6791   0.3147     H
H       0.4377   0.3883   0.8035     H
H       0.4377   0.3883   0.8705     H
H       0.4377   0.8035   0.3883     H
H       0.4377   0.8035   0.8705     H
H       0.4377   0.8705   0.3883     H
H       0.4377   0.8705   0.8035     H
H       0.4448   0.0434   0.3658     H
H       0.4448   0.0434    0.646     H
H       0.4448   0.3658   0.0434     H
H       0.4448   0.3658    0.646     H
H       0.4448    0.646   0.0434     H
H       0.4448    0.646   0.3658     H
H       0.4507   0.0269   0.2615     H
H       0.4507   0.0269   0.7609     H
H       0.4507   0.2615   0.0269     H
H       0.4507   0.2615   0.7609     H
H       0.4507   0.7609   0.0269     H
H       0.4507   0.7609   0.2615     H
N      0.45358  0.33276  0.71508     N
N      0.45358  0.33276  0.99858     N
N      0.45358  0.71508  0.33276     N
N      0.45358  0.71508  0.99858     N
N      0.45358  0.99858  0.33276     N
N      0.45358  0.99858  0.71508     N
C      0.45511  0.04447  0.33109     C
C      0.45511  0.04447  0.66933     C
C      0.45511  0.33109  0.04447     C
C      0.45511  0.33109  0.66933     C
C      0.45511  0.66933  0.04447     C
C      0.45511  0.66933  0.33109     C
C      0.47364  0.28016  0.74796     C
C      0.47364  0.28016  0.99824     C
C      0.47364  0.74796  0.28016     C
C      0.47364  0.74796  0.99824     C
C      0.47364  0.99824  0.28016     C
C      0.47364  0.99824  0.74796     C
H       0.4746   0.2814   0.7774     H
H       0.4746   0.2814   0.9666     H
H       0.4746   0.7774   0.2814     H
H       0.4746   0.7774   0.9666     H
H       0.4746   0.9666   0.2814     H
H       0.4746   0.9666   0.7774     H
H       0.4784   0.3936   0.6782     H
H       0.4784   0.3936   0.9498     H
H       0.4784   0.6782   0.3936     H
H       0.4784   0.6782   0.9498     H
H       0.4784   0.9498   0.3936     H
H       0.4784   0.9498   0.6782     H
C      0.49011  0.35791  0.69929     C
C      0.49011  0.35791  0.95269     C
C      0.49011  0.69929  0.35791     C
C      0.49011  0.69929  0.95269     C
C      0.49011  0.95269  0.35791     C
C      0.49011  0.95269  0.69929     C
H       0.4906   0.3576   0.7298     H
H       0.4906   0.3576    0.922     H
H       0.4906   0.7298   0.3576     H
H       0.4906   0.7298    0.922     H
H       0.4906    0.922   0.3576     H
H       0.4906    0.922   0.7298     H
H       0.5094    0.078   0.2702     H
H       0.5094    0.078   0.6424     H
H       0.5094   0.2702    0.078     H
H       0.5094   0.2702   0.6424     H
H       0.5094   0.6424    0.078     H
H       0.5094   0.6424   0.2702     H
C      0.50989  0.04731  0.30071     C
C      0.50989  0.04731  0.64209     C
C      0.50989  0.30071  0.04731     C
C      0.50989  0.30071  0.64209     C
C      0.50989  0.64209  0.04731     C
C      0.50989  0.64209  0.30071     C
H       0.5216   0.0502   0.3218     H
H       0.5216   0.0502   0.6064     H
H       0.5216   0.3218   0.0502     H
H       0.5216   0.3218   0.6064     H
H       0.5216   0.6064   0.0502     H
H       0.5216   0.6064   0.3218     H
H       0.5254   0.0334   0.2226     H
H       0.5254   0.0334   0.7186     H
H       0.5254   0.2226   0.0334     H
H       0.5254   0.2226   0.7186     H
H       0.5254   0.7186   0.0334     H
H       0.5254   0.7186   0.2226     H
C      0.52636  0.00176  0.25204     C
C      0.52636  0.00176  0.71984     C
C      0.52636  0.25204  0.00176     C
C      0.52636  0.25204  0.71984     C
C      0.52636  0.71984  0.00176     C
C      0.52636  0.71984  0.25204     C
C      0.54489  0.33067  0.66891     C
C      0.54489  0.33067  0.95553     C
C      0.54489  0.66891  0.33067     C
C      0.54489  0.66891  0.95553     C
C      0.54489  0.95553  0.33067     C
C      0.54489  0.95553  0.66891     C
N      0.54642  0.00142  0.28492     N
N      0.54642  0.00142  0.66724     N
N      0.54642  0.28492  0.00142     N
N      0.54642  0.28492  0.66724     N
N      0.54642  0.66724  0.00142     N
N      0.54642  0.66724  0.28492     N
H       0.5493   0.2391   0.7385     H
H       0.5493   0.2391   0.9731     H
H       0.5493   0.7385   0.2391     H
H       0.5493   0.7385   0.9731     H
H       0.5493   0.9731   0.2391     H
H       0.5493   0.9731   0.7385     H
H       0.5552    0.354   0.6342     H
H       0.5552    0.354   0.9566     H
H       0.5552   0.6342    0.354     H
H       0.5552   0.6342   0.9566     H
H       0.5552   0.9566    0.354     H
H       0.5552   0.9566   0.6342     H
H       0.5623   0.1295   0.1965     H
H       0.5623   0.1295   0.6117     H
H       0.5623   0.1965   0.1295     H
H       0.5623   0.1965   0.6117     H
H       0.5623   0.6117   0.1295     H
H       0.5623   0.6117   0.1965     H
H       0.5689   0.3209   0.6853     H
H       0.5689   0.3209   0.9249     H
H       0.5689   0.6853   0.3209     H
H       0.5689   0.6853   0.9249     H
H       0.5689   0.9249   0.3209     H
H       0.5689   0.9249   0.6853     H
H       0.5701   0.0831   0.1503     H
H       0.5701   0.0831   0.6965     H
H       0.5701   0.1503   0.0831     H
H       0.5701   0.1503   0.6965     H
H       0.5701   0.6965   0.0831     H
H       0.5701   0.6965   0.1503     H
C      0.59757  0.12893  0.17593     C
C      0.59757  0.12893  0.59757     C
C      0.59757  0.17593  0.12893     C
C      0.59757  0.17593  0.59757     C
C      0.59757  0.59757  0.12893     C
C      0.59757  0.59757  0.17593     C
C      0.60518  0.08338  0.13032     C
C      0.60518  0.08338  0.68112     C
C      0.60518  0.13032  0.08338     C
C      0.60518  0.13032  0.68112     C
C      0.60518  0.68112  0.08338     C
C      0.60518  0.68112  0.13032     C
H       0.6064   0.0502   0.3218     H
H       0.6064   0.0502   0.5216     H
H       0.6064   0.3218   0.0502     H
H       0.6064   0.3218   0.5216     H
H       0.6064   0.5216   0.0502     H
H       0.6064   0.5216   0.3218     H
H       0.6117   0.1295   0.1965     H
H       0.6117   0.1295   0.5623     H
H       0.6117   0.1965   0.1295     H
H       0.6117   0.1965   0.5623     H
H       0.6117   0.5623   0.1295     H
H       0.6117   0.5623   0.1965     H
H       0.6217   0.2029   0.7473     H
H       0.6217   0.2029   0.9281     H
H       0.6217   0.7473   0.2029     H
H       0.6217   0.7473   0.9281     H
H       0.6217   0.9281   0.2029     H
H       0.6217   0.9281   0.7473     H
H       0.6251   0.0529   0.1201     H
H       0.6251   0.0529   0.7019     H
H       0.6251   0.1201   0.0529     H
H       0.6251   0.1201   0.7019     H
H       0.6251   0.7019   0.0529     H
H       0.6251   0.7019   0.1201     H
N      0.62759  0.08155  0.16327     N
N      0.62759  0.08155  0.62759     N
N      0.62759  0.16327  0.08155     N
N      0.62759  0.16327  0.62759     N
N      0.62759  0.62759  0.08155     N
N      0.62759  0.62759  0.16327     N
Ag    0.628709 0.006947 0.235635    Ag
Ag    0.628709 0.006947 0.628709    Ag
Ag    0.628709 0.235635 0.006947    Ag
Ag    0.628709 0.235635 0.628709    Ag
Ag    0.628709 0.628709 0.006947    Ag
Ag    0.628709 0.628709 0.235635    Ag
H       0.6342    0.354   0.5552     H
H       0.6342    0.354   0.9566     H
H       0.6342   0.5552    0.354     H
H       0.6342   0.5552   0.9566     H
H       0.6342   0.9566    0.354     H
H       0.6342   0.9566   0.5552     H
C      0.64209  0.04731  0.30071     C
C      0.64209  0.04731  0.50989     C
C      0.64209  0.30071  0.04731     C
C      0.64209  0.30071  0.50989     C
C      0.64209  0.50989  0.04731     C
C      0.64209  0.50989  0.30071     C
H       0.6424    0.078   0.2702     H
H       0.6424    0.078   0.5094     H
H       0.6424   0.2702    0.078     H
H       0.6424   0.2702   0.5094     H
H       0.6424   0.5094    0.078     H
H       0.6424   0.5094   0.2702     H
H        0.646   0.0434   0.3658     H
H        0.646   0.0434   0.4448     H
H        0.646   0.2742   0.6954     H
H        0.646   0.2742   0.8844     H
H        0.646   0.3658   0.0434     H
H        0.646   0.3658   0.4448     H
H        0.646   0.4448   0.0434     H
H        0.646   0.4448   0.3658     H
H        0.646   0.6954   0.2742     H
H        0.646   0.6954   0.8844     H
H        0.646   0.8844   0.2742     H
H        0.646   0.8844   0.6954     H
H       0.6521   0.1515   0.7341     H
H       0.6521   0.1515   0.9623     H
H       0.6521   0.7341   0.1515     H
H       0.6521   0.7341   0.9623     H
H       0.6521   0.9623   0.1515     H
H       0.6521   0.9623   0.7341     H
C      0.65579  0.18077  0.73283     C
C      0.65579  0.18077  0.93061     C
C      0.65579  0.73283  0.18077     C
C      0.65579  0.73283  0.93061     C
C      0.65579  0.93061  0.18077     C
C      0.65579  0.93061  0.73283     C
N      0.66724  0.00142  0.28492     N
N      0.66724  0.00142  0.54642     N
N      0.66724  0.28492  0.00142     N
N      0.66724  0.28492  0.54642     N
N      0.66724  0.54642  0.00142     N
N      0.66724  0.54642  0.28492     N
H       0.6685   0.1739   0.7941     H
H       0.6685   0.1739   0.8635     H
H       0.6685   0.7941   0.1739     H
H       0.6685   0.7941   0.8635     H
H       0.6685   0.8635   0.1739     H
H       0.6685   0.8635   0.7941     H
C      0.66891  0.33067  0.54489     C
C      0.66891  0.33067  0.95553     C
C      0.66891  0.54489  0.33067     C
C      0.66891  0.54489  0.95553     C
C      0.66891  0.95553  0.33067     C
C      0.66891  0.95553  0.54489     C
C      0.66933  0.04447  0.33109     C
C      0.66933  0.04447  0.45511     C
C      0.66933  0.33109  0.04447     C
C      0.66933  0.33109  0.45511     C
C      0.66933  0.45511  0.04447     C
C      0.66933  0.45511  0.33109     C
H       0.6782   0.3936   0.4784     H
H       0.6782   0.3936   0.9498     H
H       0.6782   0.4784   0.3936     H
H       0.6782   0.4784   0.9498     H
H       0.6782   0.9498   0.3936     H
H       0.6782   0.9498   0.4784     H
N       0.6788  0.20968   0.6788     N
N       0.6788  0.20968  0.93272     N
N       0.6788   0.6788  0.20968     N
N       0.6788   0.6788  0.93272     N
N       0.6788  0.93272  0.20968     N
N       0.6788  0.93272   0.6788     N
H       0.6791   0.0751   0.3147     H
H       0.6791   0.0751   0.4311     H
H       0.6791   0.3147   0.0751     H
H       0.6791   0.3147   0.4311     H
H       0.6791   0.4311   0.0751     H
H       0.6791   0.4311   0.3147     H
C      0.68082   0.2531  0.68082     C
C      0.68082   0.2531  0.88526     C
C      0.68082  0.68082   0.2531     C
C      0.68082  0.68082  0.88526     C
C      0.68082  0.88526   0.2531     C
C      0.68082  0.88526  0.68082     C
C      0.68112  0.08338  0.13032     C
C      0.68112  0.08338  0.60518     C
C      0.68112  0.13032  0.08338     C
C      0.68112  0.13032  0.60518     C
C      0.68112  0.60518  0.08338     C
C      0.68112  0.60518  0.13032     C
H       0.6853   0.3209   0.5689     H
H       0.6853   0.3209   0.9249     H
H       0.6853   0.5689   0.3209     H
H       0.6853   0.5689   0.9249     H
H       0.6853   0.9249   0.3209     H
H       0.6853   0.9249   0.5689     H
C      0.68904  0.16134  0.76506     C
C      0.68904  0.16134  0.88456     C
C      0.68904  0.76506  0.16134     C
C      0.68904  0.76506  0.88456     C
C      0.68904  0.88456  0.16134     C
C      0.68904  0.88456  0.76506     C
H       0.6915   0.2499   0.7409     H
H       0.6915   0.2499   0.8177     H
H       0.6915   0.7409   0.2499     H
H       0.6915   0.7409   0.8177     H
H       0.6915   0.8177   0.2499     H
H       0.6915   0.8177   0.7409     H
H       0.6954   0.2742    0.646     H
H       0.6954   0.2742   0.8844     H
H       0.6954    0.646   0.2742     H
H       0.6954    0.646   0.8844     H
H       0.6954   0.8844   0.2742     H
H       0.6954   0.8844    0.646     H
H       0.6965   0.0831   0.1503     H
H       0.6965   0.0831   0.5701     H
H       0.6965   0.1503   0.0831     H
H       0.6965   0.1503   0.5701     H
H       0.6965   0.5701   0.0831     H
H       0.6965   0.5701   0.1503     H
C      0.69929  0.35791  0.49011     C
C      0.69929  0.35791  0.95269     C
C      0.69929  0.49011  0.35791     C
C      0.69929  0.49011  0.95269     C
C      0.69929  0.95269  0.35791     C
C      0.69929  0.95269  0.49011     C
H        0.701   0.1238   0.7784     H
H        0.701   0.1238   0.8968     H
H        0.701   0.7784   0.1238     H
H        0.701   0.7784   0.8968     H
H        0.701   0.8968   0.1238     H
H        0.701   0.8968   0.7784     H
H       0.7019   0.0529   0.1201     H
H       0.7019   0.0529   0.6251     H
H       0.7019   0.1201   0.0529     H
H       0.7019   0.1201   0.6251     H
H       0.7019   0.6251   0.0529     H
H       0.7019   0.6251   0.1201     H
C       0.7127  0.23622   0.7127     C
C       0.7127  0.23622  0.83838     C
C       0.7127   0.7127  0.23622     C
C       0.7127   0.7127  0.83838     C
C       0.7127  0.83838  0.23622     C
C       0.7127  0.83838   0.7127     C
N      0.71508  0.33276  0.45358     N
N      0.71508  0.33276  0.99858     N
N      0.71508  0.45358  0.33276     N
N      0.71508  0.45358  0.99858     N
N      0.71508  0.99858  0.33276     N
N      0.71508  0.99858  0.45358     N
H       0.7186   0.0334   0.2226     H
H       0.7186   0.0334   0.5254     H
H       0.7186   0.2226   0.0334     H
H       0.7186   0.2226   0.5254     H
H       0.7186   0.5254   0.0334     H
H       0.7186   0.5254   0.2226     H
C      0.71984  0.00176  0.25204     C
C      0.71984  0.00176  0.52636     C
C      0.71984  0.25204  0.00176     C
C      0.71984  0.25204  0.52636     C
C      0.71984  0.52636  0.00176     C
C      0.71984  0.52636  0.25204     C
H       0.7258   0.1156   0.3046     H
H       0.7258   0.1156    0.354     H
H       0.7258   0.3046   0.1156     H
H       0.7258   0.3046    0.354     H
H       0.7258    0.354   0.1156     H
H       0.7258    0.354   0.3046     H
H       0.7298   0.3576   0.4906     H
H       0.7298   0.3576    0.922     H
H       0.7298   0.4906   0.3576     H
H       0.7298   0.4906    0.922     H
H       0.7298    0.922   0.3576     H
H       0.7298    0.922   0.4906     H
C      0.73283  0.18077  0.65579     C
C      0.73283  0.18077  0.93061     C
C      0.73283  0.65579  0.18077     C
C      0.73283  0.65579  0.93061     C
C      0.73283  0.93061  0.18077     C
C      0.73283  0.93061  0.65579     C
N      0.73349  0.17943  0.73349     N
N      0.73349  0.17943  0.85359     N
N      0.73349  0.73349  0.17943     N
N      0.73349  0.73349  0.85359     N
N      0.73349  0.85359  0.17943     N
N      0.73349  0.85359  0.73349     N
H       0.7341   0.1515   0.6521     H
H       0.7341   0.1515   0.9623     H
H       0.7341   0.6521   0.1515     H
H       0.7341   0.6521   0.9623     H
H       0.7341   0.9623   0.1515     H
H       0.7341   0.9623   0.6521     H
H       0.7385   0.2391   0.5493     H
H       0.7385   0.2391   0.9731     H
H       0.7385   0.5493   0.2391     H
H       0.7385   0.5493   0.9731     H
H       0.7385   0.9731   0.2391     H
H       0.7385   0.9731   0.5493     H
H       0.7409   0.2499   0.6915     H
H       0.7409   0.2499   0.8177     H
H       0.7409   0.6915   0.2499     H
H       0.7409   0.6915   0.8177     H
H       0.7409   0.8177   0.2499     H
H       0.7409   0.8177   0.6915     H
C       0.7469  0.11474  0.31918     C
C       0.7469  0.31918  0.11474     C
C       0.7469  0.31918  0.31918     C
H       0.7473   0.2029   0.6217     H
H       0.7473   0.2029   0.9281     H
H       0.7473   0.6217   0.2029     H
H       0.7473   0.6217   0.9281     H
H       0.7473   0.9281   0.2029     H
H       0.7473   0.9281   0.6217     H
C      0.74796  0.28016  0.47364     C
C      0.74796  0.28016  0.99824     C
C      0.74796  0.47364  0.28016     C
C      0.74796  0.47364  0.99824     C
C      0.74796  0.99824  0.28016     C
C      0.74796  0.99824  0.47364     C
H       0.7488   0.0538    0.824     H
H       0.7488   0.0538   0.8734     H
H       0.7488    0.824   0.0538     H
H       0.7488    0.824   0.8734     H
H       0.7488   0.8734   0.0538     H
H       0.7488   0.8734    0.824     H
H       0.7501   0.1823   0.2591     H
H       0.7501   0.1823   0.3085     H
H       0.7501   0.2591   0.1823     H
H       0.7501   0.2591   0.3085     H
H       0.7501   0.3085   0.1823     H
H       0.7501   0.3085   0.2591     H
H       0.7609   0.0269   0.2615     H
H       0.7609   0.0269   0.4507     H
H       0.7609   0.2615   0.0269     H
H       0.7609   0.2615   0.4507     H
H       0.7609   0.4507   0.0269     H
H       0.7609   0.4507   0.2615     H
C      0.76378  0.16162   0.2873     C
C      0.76378   0.2873  0.16162     C
C      0.76378   0.2873   0.2873     C
Ag    0.764365 0.371291 0.371291    Ag
Ag    0.764365 0.371291 0.993053    Ag
Ag    0.764365 0.993053 0.371291    Ag
C      0.76506  0.16134  0.68904     C
C      0.76506  0.16134  0.88456     C
C      0.76506  0.68904  0.16134     C
C      0.76506  0.68904  0.88456     C
C      0.76506  0.88456  0.16134     C
C      0.76506  0.88456  0.68904     C
C      0.77026  0.04154   0.8441     C
C      0.77026   0.8441  0.04154     C
C      0.77026   0.8441   0.8441     C
H       0.7766   0.8512   0.9006     H
H       0.7766   0.8512   0.9716     H
H       0.7766   0.9006   0.8512     H
H       0.7766   0.9006   0.9716     H
H       0.7766   0.9716   0.8512     H
H       0.7766   0.9716   0.9006     H
H       0.7774   0.2814   0.4746     H
H       0.7774   0.2814   0.9666     H
H       0.7774   0.4746   0.2814     H
H       0.7774   0.4746   0.9666     H
H       0.7774   0.9666   0.2814     H
H       0.7774   0.9666   0.4746     H
H       0.7784   0.1238    0.701     H
H       0.7784   0.1238   0.8968     H
H       0.7784    0.701   0.1238     H
H       0.7784    0.701   0.8968     H
H       0.7784   0.8968   0.1238     H
H       0.7784   0.8968    0.701     H
Ag    0.782337 0.152989 0.782337    Ag
Ag    0.782337 0.782337 0.152989    Ag
Ag    0.782337 0.782337 0.782337    Ag
C       0.7895   0.8632   0.8632     C
C       0.7895   0.8632   0.9841     C
C       0.7895   0.9841   0.8632     C
N      0.79032  0.06728   0.3212     N
N      0.79032   0.3212  0.06728     N
N      0.79032   0.3212   0.3212     N
H       0.7941   0.1739   0.6685     H
H       0.7941   0.1739   0.8635     H
H       0.7941   0.6685   0.1739     H
H       0.7941   0.6685   0.8635     H
H       0.7941   0.8635   0.1739     H
H       0.7941   0.8635   0.6685     H
H       0.7971   0.0719   0.2527     H
H       0.7971   0.0719   0.3783     H
H       0.7971   0.2527   0.0719     H
H       0.7971   0.2527   0.3783     H
H       0.7971   0.3783   0.0719     H
H       0.7971   0.3783   0.2527     H
H       0.8035   0.3883   0.4377     H
H       0.8035   0.3883   0.8705     H
H       0.8035   0.4377   0.3883     H
H       0.8035   0.4377   0.8705     H
H       0.8035   0.8705   0.3883     H
H       0.8035   0.8705   0.4377     H
N      0.81228  0.06316  0.81228     N
N      0.81228  0.81228  0.06316     N
N      0.81228  0.81228  0.81228     N
H       0.8177   0.2499   0.6915     H
H       0.8177   0.2499   0.7409     H
H       0.8177   0.6915   0.2499     H
H       0.8177   0.6915   0.7409     H
H       0.8177   0.7409   0.2499     H
H       0.8177   0.7409   0.6915     H
C      0.81923  0.06939  0.26717     C
C      0.81923  0.06939  0.34421     C
C      0.81923  0.26717  0.06939     C
C      0.81923  0.26717  0.34421     C
C      0.81923  0.34421  0.06939     C
C      0.81923  0.34421  0.26717     C
N      0.82057  0.14641  0.26651     N
N      0.82057  0.26651  0.14641     N
N      0.82057  0.26651  0.26651     N
H        0.824   0.0538   0.7488     H
H        0.824   0.0538   0.8734     H
H        0.824   0.7488   0.0538     H
H        0.824   0.7488   0.8734     H
H        0.824   0.8734   0.0538     H
H        0.824   0.8734   0.7488     H
C      0.82407  0.40243  0.40243     C
C      0.82407  0.40243  0.87107     C
C      0.82407  0.87107  0.40243     C
H       0.8261   0.1365   0.2059     H
H       0.8261   0.1365   0.3315     H
H       0.8261   0.2059   0.1365     H
H       0.8261   0.2059   0.3315     H
H       0.8261   0.3315   0.1365     H
H       0.8261   0.3315   0.2059     H
N      0.83673  0.37241  0.37241     N
N      0.83673  0.37241  0.91845     N
N      0.83673  0.91845  0.37241     N
C      0.83838  0.23622   0.7127     C
C      0.83838   0.7127  0.23622     C
C      0.83838   0.7127   0.7127     C
C      0.83866  0.11544  0.23494     C
C      0.83866  0.11544  0.31096     C
C      0.83866  0.23494  0.11544     C
C      0.83866  0.23494  0.31096     C
C      0.83866  0.31096  0.11544     C
C      0.83866  0.31096  0.23494     C
C       0.8441  0.04154  0.77026     C
C       0.8441  0.04154   0.8441     C
C       0.8441  0.77026  0.04154     C
C       0.8441  0.77026   0.8441     C
C       0.8441   0.8441  0.04154     C
C       0.8441   0.8441  0.77026     C
N      0.84517  0.84517  0.84517     N
N      0.84517  0.84517  0.96449     N
N      0.84517  0.96449  0.84517     N
Ag    0.847011 0.217663 0.217663    Ag
H       0.8485   0.0377   0.2659     H
H       0.8485   0.0377   0.3479     H
H       0.8485   0.2659   0.0377     H
H       0.8485   0.2659   0.3479     H
H       0.8485   0.3479   0.0377     H
H       0.8485   0.3479   0.2659     H
H       0.8497   0.3035   0.4299     H
H       0.8497   0.3035   0.9169     H
H       0.8497   0.4299   0.3035     H
H       0.8497   0.4299   0.9169     H
H       0.8497   0.9169   0.3035     H
H       0.8497   0.9169   0.4299     H
H       0.8512   0.7766   0.9006     H
H       0.8512   0.7766   0.9716     H
H       0.8512   0.9006   0.7766     H
H       0.8512   0.9006   0.9716     H
H       0.8512   0.9716   0.7766     H
H       0.8512   0.9716   0.9006     H
N      0.85359  0.17943  0.73349     N
N      0.85359  0.73349  0.17943     N
N      0.85359  0.73349  0.73349     N
C       0.8632   0.7895   0.8632     C
C       0.8632   0.7895   0.9841     C
C       0.8632   0.8632   0.7895     C
C       0.8632   0.8632   0.9841     C
C       0.8632   0.9841   0.7895     C
C       0.8632   0.9841   0.8632     C
H       0.8635   0.1739   0.6685     H
H       0.8635   0.1739   0.7941     H
H       0.8635   0.6685   0.1739     H
H       0.8635   0.6685   0.7941     H
H       0.8635   0.7941   0.1739     H
H       0.8635   0.7941   0.6685     H
C      0.86968  0.31888  0.39482     C
C      0.86968  0.31888  0.91662     C
C      0.86968  0.39482  0.31888     C
C      0.86968  0.39482  0.91662     C
C      0.86968  0.91662  0.31888     C
C      0.86968  0.91662  0.39482     C
H       0.8705   0.3883   0.4377     H
H       0.8705   0.3883   0.8035     H
H       0.8705   0.4377   0.3883     H
H       0.8705   0.4377   0.8035     H
H       0.8705   0.8035   0.3883     H
H       0.8705   0.8035   0.4377     H
C      0.87107  0.40243  0.40243     C
C      0.87107  0.40243  0.82407     C
C      0.87107  0.82407  0.40243     C
H       0.8734   0.0538   0.7488     H
H       0.8734   0.0538    0.824     H
H       0.8734   0.7488   0.0538     H
H       0.8734   0.7488    0.824     H
H       0.8734    0.824   0.0538     H
H       0.8734    0.824   0.7488     H
Ag       0.875    0.875    0.875    Ag
H       0.8762   0.1032   0.2216     H
H       0.8762   0.1032    0.299     H
H       0.8762   0.2216   0.1032     H
H       0.8762   0.2216    0.299     H
H       0.8762    0.299   0.1032     H
H       0.8762    0.299   0.2216     H
H       0.8799   0.2981   0.3749     H
H       0.8799   0.2981   0.9471     H
H       0.8799   0.3749   0.2981     H
H       0.8799   0.3749   0.9471     H
H       0.8799   0.9471   0.2981     H
H       0.8799   0.9471   0.3749     H
H       0.8844   0.2742    0.646     H
H       0.8844   0.2742   0.6954     H
H       0.8844    0.646   0.2742     H
H       0.8844    0.646   0.6954     H
H       0.8844   0.6954   0.2742     H
H       0.8844   0.6954    0.646     H
C      0.88456  0.16134  0.68904     C
C      0.88456  0.16134  0.76506     C
C      0.88456  0.68904  0.16134     C
C      0.88456  0.68904  0.76506     C
C      0.88456  0.76506  0.16134     C
C      0.88456  0.76506  0.68904     C
C      0.88526   0.2531  0.68082     C
C      0.88526  0.68082   0.2531     C
C      0.88526  0.68082  0.68082     C
H       0.8968   0.1238    0.701     H
H       0.8968   0.1238   0.7784     H
H       0.8968    0.701   0.1238     H
H       0.8968    0.701   0.7784     H
H       0.8968   0.7784   0.1238     H
H       0.8968   0.7784    0.701     H
H       0.9006   0.7766   0.8512     H
H       0.9006   0.7766   0.9716     H
H       0.9006   0.8512   0.7766     H
H       0.9006   0.8512   0.9716     H
H       0.9006   0.9716   0.7766     H
H       0.9006   0.9716   0.8512     H
C      0.91662  0.31888  0.39482     C
C      0.91662  0.31888  0.86968     C
C      0.91662  0.39482  0.31888     C
C      0.91662  0.39482  0.86968     C
C      0.91662  0.86968  0.31888     C
C      0.91662  0.86968  0.39482     C
H       0.9169   0.3035   0.4299     H
H       0.9169   0.3035   0.8497     H
H       0.9169   0.4299   0.3035     H
H       0.9169   0.4299   0.8497     H
H       0.9169   0.8497   0.3035     H
H       0.9169   0.8497   0.4299     H
N      0.91845  0.37241  0.37241     N
N      0.91845  0.37241  0.83673     N
N      0.91845  0.83673  0.37241     N
H        0.922   0.3576   0.4906     H
H        0.922   0.3576   0.7298     H
H        0.922   0.4906   0.3576     H
H        0.922   0.4906   0.7298     H
H        0.922   0.7298   0.3576     H
H        0.922   0.7298   0.4906     H
H       0.9249   0.3209   0.5689     H
H       0.9249   0.3209   0.6853     H
H       0.9249   0.5689   0.3209     H
H       0.9249   0.5689   0.6853     H
H       0.9249   0.6853   0.3209     H
H       0.9249   0.6853   0.5689     H
H       0.9281   0.2029   0.6217     H
H       0.9281   0.2029   0.7473     H
H       0.9281   0.6217   0.2029     H
H       0.9281   0.6217   0.7473     H
H       0.9281   0.7473   0.2029     H
H       0.9281   0.7473   0.6217     H
C      0.93061  0.18077  0.65579     C
C      0.93061  0.18077  0.73283     C
C      0.93061  0.65579  0.18077     C
C      0.93061  0.65579  0.73283     C
C      0.93061  0.73283  0.18077     C
C      0.93061  0.73283  0.65579     C
N      0.93272  0.20968   0.6788     N
N      0.93272   0.6788  0.20968     N
N      0.93272   0.6788   0.6788     N
N      0.93684  0.18772  0.18772     N
H       0.9462   0.1266    0.176     H
H       0.9462   0.1266   0.2512     H
H       0.9462    0.176   0.1266     H
H       0.9462    0.176   0.2512     H
H       0.9462   0.2512   0.1266     H
H       0.9462   0.2512    0.176     H
H       0.9471   0.2981   0.3749     H
H       0.9471   0.2981   0.8799     H
H       0.9471   0.3749   0.2981     H
H       0.9471   0.3749   0.8799     H
H       0.9471   0.8799   0.2981     H
H       0.9471   0.8799   0.3749     H
H       0.9498   0.3936   0.4784     H
H       0.9498   0.3936   0.6782     H
H       0.9498   0.4784   0.3936     H
H       0.9498   0.4784   0.6782     H
H       0.9498   0.6782   0.3936     H
H       0.9498   0.6782   0.4784     H
C      0.95269  0.35791  0.49011     C
C      0.95269  0.35791  0.69929     C
C      0.95269  0.49011  0.35791     C
C      0.95269  0.49011  0.69929     C
C      0.95269  0.69929  0.35791     C
C      0.95269  0.69929  0.49011     C
C      0.95553  0.33067  0.54489     C
C      0.95553  0.33067  0.66891     C
C      0.95553  0.54489  0.33067     C
C      0.95553  0.54489  0.66891     C
C      0.95553  0.66891  0.33067     C
C      0.95553  0.66891  0.54489     C
H       0.9566    0.354   0.5552     H
H       0.9566    0.354   0.6342     H
H       0.9566   0.5552    0.354     H
H       0.9566   0.5552   0.6342     H
H       0.9566   0.6342    0.354     H
H       0.9566   0.6342   0.5552     H
C      0.95846   0.1559   0.1559     C
C      0.95846   0.1559  0.22974     C
C      0.95846  0.22974   0.1559     C
H       0.9623   0.1515   0.6521     H
H       0.9623   0.1515   0.7341     H
H       0.9623   0.6521   0.1515     H
H       0.9623   0.6521   0.7341     H
H       0.9623   0.7341   0.1515     H
H       0.9623   0.7341   0.6521     H
N      0.96449  0.84517  0.84517     N
H       0.9666   0.2814   0.4746     H
H       0.9666   0.2814   0.7774     H
H       0.9666   0.4746   0.2814     H
H       0.9666   0.4746   0.7774     H
H       0.9666   0.7774   0.2814     H
H       0.9666   0.7774   0.4746     H
H       0.9716   0.7766   0.8512     H
H       0.9716   0.7766   0.9006     H
H       0.9716   0.8512   0.7766     H
H       0.9716   0.8512   0.9006     H
H       0.9716   0.9006   0.7766     H
H       0.9716   0.9006   0.8512     H
H       0.9731   0.2391   0.5493     H
H       0.9731   0.2391   0.7385     H
H       0.9731   0.5493   0.2391     H
H       0.9731   0.5493   0.7385     H
H       0.9731   0.7385   0.2391     H
H       0.9731   0.7385   0.5493     H
C       0.9841   0.7895   0.8632     C
C       0.9841   0.8632   0.7895     C
C       0.9841   0.8632   0.8632     C
Ag    0.993053 0.371291 0.371291    Ag
Ag    0.993053 0.371291 0.764365    Ag
Ag    0.993053 0.764365 0.371291    Ag
C      0.99824  0.28016  0.47364     C
C      0.99824  0.28016  0.74796     C
C      0.99824  0.47364  0.28016     C
C      0.99824  0.47364  0.74796     C
C      0.99824  0.74796  0.28016     C
C      0.99824  0.74796  0.47364     C
N      0.99858  0.33276  0.45358     N
N      0.99858  0.33276  0.71508     N
N      0.99858  0.45358  0.33276     N
N      0.99858  0.45358  0.71508     N
N      0.99858  0.71508  0.33276     N
N      0.99858  0.71508  0.45358     N
