data_I
_chemical_name_common  '/home/zhangsd/repos/MofS-CGCNN/ML/data/WS24/clean_cifs/YOZROW'
_cell_length_a 11.35280
_cell_length_b 11.35280
_cell_length_c 23.14500
_cell_angle_alpha 90.00000
_cell_angle_beta  90.00000
_cell_angle_gamma 90.00000
_space_group_name_H-M_alt      'P 1'


loop_
_space_group_symop_operation_xyz
  'x, y, z' 

loop_
_atom_site_label
_atom_site_fract_x
_atom_site_fract_y
_atom_site_fract_z
_atom_site_type_symbol
Co         0.0      0.0      0.0    Co
Co         0.0      0.0      0.5    Co
Co         0.0      0.5      0.0    Co
Co         0.0      0.5      0.5    Co
H       0.0078   0.1845   0.7041     H
H       0.0078   0.3155   0.2041     H
C       0.0139   0.1146   0.6253     C
C       0.0139   0.3854   0.1253     C
O       0.0171    0.655   0.0461     O
O       0.0171    0.845   0.5461     O
O       0.0179   0.1825   0.0047     O
O       0.0179   0.3175   0.5047     O
C       0.0179   0.7376   0.5388     C
C       0.0179   0.7624   0.0388     C
C       0.0393   0.6557   0.8256     C
C       0.0393   0.8443   0.3256     C
N       0.0495   0.5729   0.9186     N
N       0.0495   0.9271   0.4186     N
C       0.0685   0.6669   0.5882     C
C       0.0685   0.8331   0.0882     C
N       0.0729   0.5495   0.5814     N
N       0.0729   0.9505   0.0814     N
H       0.0956   0.1157   0.6226     H
H       0.0956   0.3843   0.1226     H
Cl      0.0994   0.5994     0.25    Cl
Cl      0.0994   0.9006     0.75    Cl
H       0.1053   0.6992   0.1421     H
H       0.1053   0.8008   0.6421     H
C       0.1098   0.7194   0.6383     C
C       0.1098   0.7806   0.1383     C
C       0.1146   0.0139   0.1253     C
C       0.1146   0.4861   0.6253     C
H       0.1157   0.0956   0.1226     H
H       0.1157   0.4044   0.6226     H
O        0.155   0.5171   0.4539     O
O        0.155   0.9829   0.9539     O
N       0.1556    0.656   0.8187     N
N       0.1556    0.844   0.3187     N
C       0.1557   0.5393   0.6744     C
C       0.1557   0.9607   0.1744     C
N        0.156   0.6556   0.6813     N
N        0.156   0.8444   0.1813     N
C       0.1669   0.5685   0.9118     C
C       0.1669   0.9315   0.4118     C
O       0.1825   0.0179   0.5047     O
O       0.1825   0.4821   0.0047     O
H       0.1845   0.0078   0.2041     H
H       0.1845   0.4922   0.7041     H
H       0.1992   0.6053   0.3579     H
H       0.1992   0.8947   0.8579     H
C       0.2194   0.6098   0.8617     C
C       0.2194   0.8902   0.3617     C
C       0.2376   0.5179   0.9612     C
C       0.2376   0.9821   0.4612     C
Co        0.25     0.75     0.25    Co
Co        0.25     0.75     0.75    Co
C       0.2624   0.5179   0.4612     C
C       0.2624   0.9821   0.9612     C
C       0.2806   0.6098   0.3617     C
C       0.2806   0.8902   0.8617     C
H       0.3008   0.6053   0.8579     H
H       0.3008   0.8947   0.3579     H
H       0.3155   0.0078   0.7041     H
H       0.3155   0.4922   0.2041     H
O       0.3175   0.0179   0.0047     O
O       0.3175   0.4821   0.5047     O
C       0.3331   0.5685   0.4118     C
C       0.3331   0.9315   0.9118     C
N        0.344   0.6556   0.1813     N
N        0.344   0.8444   0.6813     N
C       0.3443   0.5393   0.1744     C
C       0.3443   0.9607   0.6744     C
N       0.3444    0.656   0.3187     N
N       0.3444    0.844   0.8187     N
O        0.345   0.5171   0.9539     O
O        0.345   0.9829   0.4539     O
H       0.3843   0.0956   0.6226     H
H       0.3843   0.4044   0.1226     H
C       0.3854   0.0139   0.6253     C
C       0.3854   0.4861   0.1253     C
C       0.3902   0.7194   0.1383     C
C       0.3902   0.7806   0.6383     C
H       0.3947   0.6992   0.6421     H
H       0.3947   0.8008   0.1421     H
Cl      0.4006   0.5994     0.75    Cl
Cl      0.4006   0.9006     0.25    Cl
H       0.4044   0.1157   0.1226     H
H       0.4044   0.3843   0.6226     H
N       0.4271   0.5495   0.0814     N
N       0.4271   0.9505   0.5814     N
C       0.4315   0.6669   0.0882     C
C       0.4315   0.8331   0.5882     C
N       0.4505   0.5729   0.4186     N
N       0.4505   0.9271   0.9186     N
C       0.4607   0.6557   0.3256     C
C       0.4607   0.8443   0.8256     C
O       0.4821   0.1825   0.5047     O
O       0.4821   0.3175   0.0047     O
C       0.4821   0.7376   0.0388     C
C       0.4821   0.7624   0.5388     C
O       0.4829    0.655   0.5461     O
O       0.4829    0.845   0.0461     O
C       0.4861   0.1146   0.1253     C
C       0.4861   0.3854   0.6253     C
H       0.4922   0.1845   0.2041     H
H       0.4922   0.3155   0.7041     H
Co         0.5      0.0      0.0    Co
Co         0.5      0.0      0.5    Co
Co         0.5      0.5      0.0    Co
Co         0.5      0.5      0.5    Co
H       0.5078   0.6845   0.2959     H
H       0.5078   0.8155   0.7959     H
C       0.5139   0.6146   0.3747     C
C       0.5139   0.8854   0.8747     C
O       0.5171    0.155   0.9539     O
O       0.5171    0.345   0.4539     O
C       0.5179   0.2376   0.4612     C
C       0.5179   0.2624   0.9612     C
O       0.5179   0.6825   0.9953     O
O       0.5179   0.8175   0.4953     O
C       0.5393   0.1557   0.1744     C
C       0.5393   0.3443   0.6744     C
N       0.5495   0.0729   0.0814     N
N       0.5495   0.4271   0.5814     N
C       0.5685   0.1669   0.4118     C
C       0.5685   0.3331   0.9118     C
N       0.5729   0.0495   0.4186     N
N       0.5729   0.4505   0.9186     N
H       0.5956   0.6157   0.3774     H
H       0.5956   0.8843   0.8774     H
Cl      0.5994   0.0994     0.75    Cl
Cl      0.5994   0.4006     0.25    Cl
H       0.6053   0.1992   0.8579     H
H       0.6053   0.3008   0.3579     H
C       0.6098   0.2194   0.3617     C
C       0.6098   0.2806   0.8617     C
C       0.6146   0.5139   0.8747     C
C       0.6146   0.9861   0.3747     C
H       0.6157   0.5956   0.8774     H
H       0.6157   0.9044   0.3774     H
O        0.655   0.0171   0.5461     O
O        0.655   0.4829   0.0461     O
N       0.6556    0.156   0.1813     N
N       0.6556    0.344   0.6813     N
C       0.6557   0.0393   0.3256     C
C       0.6557   0.4607   0.8256     C
N        0.656   0.1556   0.3187     N
N        0.656   0.3444   0.8187     N
C       0.6669   0.0685   0.0882     C
C       0.6669   0.4315   0.5882     C
O       0.6825   0.5179   0.4953     O
O       0.6825   0.9821   0.9953     O
H       0.6845   0.5078   0.7959     H
H       0.6845   0.9922   0.2959     H
H       0.6992   0.1053   0.6421     H
H       0.6992   0.3947   0.1421     H
C       0.7194   0.1098   0.1383     C
C       0.7194   0.3902   0.6383     C
C       0.7376   0.0179   0.0388     C
C       0.7376   0.4821   0.5388     C
Co        0.75     0.25     0.25    Co
Co        0.75     0.25     0.75    Co
C       0.7624   0.0179   0.5388     C
C       0.7624   0.4821   0.0388     C
C       0.7806   0.1098   0.6383     C
C       0.7806   0.3902   0.1383     C
H       0.8008   0.1053   0.1421     H
H       0.8008   0.3947   0.6421     H
H       0.8155   0.5078   0.2959     H
H       0.8155   0.9922   0.7959     H
O       0.8175   0.5179   0.9953     O
O       0.8175   0.9821   0.4953     O
C       0.8331   0.0685   0.5882     C
C       0.8331   0.4315   0.0882     C
N        0.844   0.1556   0.8187     N
N        0.844   0.3444   0.3187     N
C       0.8443   0.0393   0.8256     C
C       0.8443   0.4607   0.3256     C
N       0.8444    0.156   0.6813     N
N       0.8444    0.344   0.1813     N
O        0.845   0.0171   0.0461     O
O        0.845   0.4829   0.5461     O
H       0.8843   0.5956   0.3774     H
H       0.8843   0.9044   0.8774     H
C       0.8854   0.5139   0.3747     C
C       0.8854   0.9861   0.8747     C
C       0.8902   0.2194   0.8617     C
C       0.8902   0.2806   0.3617     C
H       0.8947   0.1992   0.3579     H
H       0.8947   0.3008   0.8579     H
Cl      0.9006   0.0994     0.25    Cl
Cl      0.9006   0.4006     0.75    Cl
H       0.9044   0.6157   0.8774     H
H       0.9044   0.8843   0.3774     H
N       0.9271   0.0495   0.9186     N
N       0.9271   0.4505   0.4186     N
C       0.9315   0.1669   0.9118     C
C       0.9315   0.3331   0.4118     C
N       0.9505   0.0729   0.5814     N
N       0.9505   0.4271   0.0814     N
C       0.9607   0.1557   0.6744     C
C       0.9607   0.3443   0.1744     C
C       0.9821   0.2376   0.9612     C
C       0.9821   0.2624   0.4612     C
O       0.9821   0.6825   0.4953     O
O       0.9821   0.8175   0.9953     O
O       0.9829    0.155   0.4539     O
O       0.9829    0.345   0.9539     O
C       0.9861   0.6146   0.8747     C
C       0.9861   0.8854   0.3747     C
H       0.9922   0.6845   0.7959     H
H       0.9922   0.8155   0.2959     H
