data_I
_chemical_name_common  '/home/zhangsd/repos/MofS-CGCNN/ML/data/WS24/clean_cifs/YUKBOX'
_cell_length_a 29.86140
_cell_length_b 29.86140
_cell_length_c 29.86140
_cell_angle_alpha 90.00000
_cell_angle_beta  90.00000
_cell_angle_gamma 90.00000
_space_group_name_H-M_alt      'P 1'


loop_
_space_group_symop_operation_xyz
  'x, y, z' 

loop_
_atom_site_label
_atom_site_fract_x
_atom_site_fract_y
_atom_site_fract_z
_atom_site_type_symbol
H          0.0   0.4329   0.4612     H
H          0.0   0.4329   0.5388     H
Zn         0.0  0.44636  0.32268    Zn
Zn         0.0  0.44636  0.67732    Zn
C          0.0   0.4599  0.47675     C
C          0.0   0.4599  0.52325     C
O          0.0  0.46292  0.38503     O
O          0.0  0.46292  0.61497     O
C          0.0      0.5   0.0239     C
C          0.0      0.5   0.1181     C
C          0.0      0.5   0.1675     C
O          0.0      0.5   0.2861     O
C          0.0      0.5   0.4043     C
C          0.0      0.5   0.4534     C
C          0.0      0.5   0.5466     C
C          0.0      0.5   0.5957     C
O          0.0      0.5   0.7139     O
C          0.0      0.5   0.8325     C
C          0.0      0.5   0.8819     C
C          0.0      0.5   0.9761     C
O          0.0  0.53708  0.38503     O
O          0.0  0.53708  0.61497     O
C          0.0   0.5401  0.47675     C
C          0.0   0.5401  0.52325     C
Zn         0.0  0.55364  0.32268    Zn
Zn         0.0  0.55364  0.67732    Zn
H          0.0   0.5671   0.4612     H
H          0.0   0.5671   0.5388     H
C       0.0239      0.0      0.5     C
H       0.0318   0.0644      0.5     H
H       0.0318   0.9356      0.5     H
C       0.0375      0.5   0.0475     C
C       0.0375      0.5   0.9525     C
O       0.0376      0.5  0.18615     O
O       0.0376      0.5  0.81385     O
C       0.0396      0.5   0.0947     C
C       0.0396      0.5   0.9053     C
C       0.0475   0.0375      0.5     C
C       0.0475   0.9625      0.5     C
O      0.05167  0.41009  0.31217     O
O      0.05167  0.41009  0.68783     O
O      0.05167  0.58991  0.31217     O
O      0.05167  0.58991  0.68783     O
Zn     0.05292      0.5  0.24864    Zn
Zn     0.05292      0.5  0.75136    Zn
H       0.0644      0.5   0.0318     H
H       0.0644      0.5   0.9682     H
H        0.067      0.5   0.1095     H
H        0.067      0.5   0.8905     H
C      0.08276  0.41461  0.28612     C
C      0.08276  0.41461  0.71388     C
C      0.08276  0.58539  0.28612     C
C      0.08276  0.58539  0.71388     C
O      0.08824  0.44674  0.25901     O
O      0.08824  0.44674  0.74099     O
O      0.08824  0.55326  0.25901     O
O      0.08824  0.55326  0.74099     O
H       0.0938   0.1662   0.2822     H
H       0.0938   0.1662   0.7178     H
H       0.0938   0.8338   0.2822     H
H       0.0938   0.8338   0.7178     H
H       0.0942   0.3444   0.3389     H
H       0.0942   0.3444   0.6611     H
H       0.0942   0.6556   0.3389     H
H       0.0942   0.6556   0.6611     H
C       0.0947   0.0396      0.5     C
C       0.0947   0.9604      0.5     C
H       0.1089   0.1256    0.312     H
H       0.1089   0.1256    0.688     H
H       0.1089   0.8744    0.312     H
H       0.1089   0.8744    0.688     H
H       0.1095    0.067      0.5     H
H       0.1095    0.933      0.5     H
C       0.1161   0.1434   0.2862     C
C       0.1161   0.1434   0.7138     C
C       0.1161   0.8566   0.2862     C
C       0.1161   0.8566   0.7138     C
C       0.1168   0.3445   0.3174     C
C       0.1168   0.3445   0.6826     C
C       0.1168   0.6555   0.3174     C
C       0.1168   0.6555   0.6826     C
H       0.1169   0.1246   0.2601     H
H       0.1169   0.1246   0.7399     H
H       0.1169   0.8754   0.2601     H
H       0.1169   0.8754   0.7399     H
C      0.11775   0.3781  0.28509     C
C      0.11775   0.3781  0.71491     C
C      0.11775   0.6219  0.28509     C
C      0.11775   0.6219  0.71491     C
C       0.1181      0.0      0.5     C
H       0.1246   0.2601   0.1169     H
H       0.1246   0.2601   0.8831     H
H       0.1246   0.7399   0.1169     H
H       0.1246   0.7399   0.8831     H
H       0.1256    0.312   0.1089     H
H       0.1256    0.312   0.8911     H
H       0.1256    0.688   0.1089     H
H       0.1256    0.688   0.8911     H
C       0.1434   0.2862   0.1161     C
C       0.1434   0.2862   0.8839     C
C       0.1434   0.7138   0.1161     C
C       0.1434   0.7138   0.8839     C
H       0.1444   0.2964   0.1898     H
H       0.1444   0.2964   0.8102     H
H       0.1444   0.7036   0.1898     H
H       0.1444   0.7036   0.8102     H
H        0.149   0.2888   0.3395     H
H        0.149   0.2888   0.6605     H
H        0.149   0.7112   0.3395     H
H        0.149   0.7112   0.6605     H
C       0.1492   0.3111   0.3178     C
C       0.1492   0.3111   0.6822     C
C       0.1492   0.6889   0.3178     C
C       0.1492   0.6889   0.6822     C
C      0.15061   0.3791  0.25352     C
C      0.15061   0.3791  0.74648     C
C      0.15061   0.6209  0.25352     C
C      0.15061   0.6209  0.74648     C
H       0.1517   0.4023   0.2328     H
H       0.1517   0.4023   0.7672     H
H       0.1517   0.5977   0.2328     H
H       0.1517   0.5977   0.7672     H
H       0.1524   0.2246   0.3315     H
H       0.1524   0.2246   0.6685     H
H       0.1524   0.7754   0.3315     H
H       0.1524   0.7754   0.6685     H
H       0.1662    0.184   0.3616     H
H       0.1662    0.184   0.6384     H
H       0.1662   0.2822   0.0938     H
H       0.1662   0.2822   0.9062     H
H       0.1662   0.7178   0.0938     H
H       0.1662   0.7178   0.9062     H
H       0.1662    0.816   0.3616     H
H       0.1662    0.816   0.6384     H
C       0.1675      0.0      0.5     C
C       0.1677   0.1681   0.2937     C
C       0.1677   0.1681   0.7063     C
C       0.1677   0.8319   0.2937     C
C       0.1677   0.8319   0.7063     C
C       0.1681   0.2937   0.1677     C
C       0.1681   0.2937   0.8323     C
C       0.1681   0.7063   0.1677     C
C       0.1681   0.7063   0.8323     C
C       0.1736   0.2002   0.3344     C
C       0.1736   0.2002   0.6656     C
C       0.1736   0.7998   0.3344     C
C       0.1736   0.7998   0.6656     C
H       0.1748   0.1848   0.2667     H
H       0.1748   0.1848   0.7333     H
H       0.1748   0.8152   0.2667     H
H       0.1748   0.8152   0.7333     H
C       0.1815    0.312   0.2851     C
C       0.1815    0.312   0.7149     C
C       0.1815    0.688   0.2851     C
C       0.1815    0.688   0.7149     C
C       0.1836  0.34391  0.25248     C
C       0.1836  0.34391  0.74752     C
C       0.1836  0.65609  0.25248     C
C       0.1836  0.65609  0.74752     C
H        0.184   0.3616   0.1662     H
H        0.184   0.3616   0.8338     H
H        0.184   0.6384   0.1662     H
H        0.184   0.6384   0.8338     H
H       0.1848   0.2667   0.1748     H
H       0.1848   0.2667   0.8252     H
H       0.1848   0.7333   0.1748     H
H       0.1848   0.7333   0.8252     H
O      0.18615   0.0376      0.5     O
O      0.18615   0.9624      0.5     O
H       0.1898   0.1444   0.2964     H
H       0.1898   0.1444   0.7036     H
H       0.1898   0.8556   0.2964     H
H       0.1898   0.8556   0.7036     H
H       0.1996   0.2737   0.3772     H
H       0.1996   0.2737   0.6228     H
H       0.1996   0.7263   0.3772     H
H       0.1996   0.7263   0.6228     H
C       0.2002   0.3344   0.1736     C
C       0.2002   0.3344   0.8264     C
C       0.2002   0.6656   0.1736     C
C       0.2002   0.6656   0.8264     C
H       0.2133   0.2327   0.4069     H
H       0.2133   0.2327   0.5931     H
H       0.2133   0.7673   0.4069     H
H       0.2133   0.7673   0.5931     H
C       0.2196   0.3393   0.2201     C
C       0.2196   0.3393   0.7799     C
C       0.2196   0.6607   0.2201     C
C       0.2196   0.6607   0.7799     C
C       0.2201   0.2196   0.3393     C
C       0.2201   0.2196   0.6607     C
C       0.2201   0.7804   0.3393     C
C       0.2201   0.7804   0.6607     C
C       0.2216   0.2501   0.3807     C
C       0.2216   0.2501   0.6193     C
C       0.2216   0.2797   0.2766     C
C       0.2216   0.2797   0.7234     C
C       0.2216   0.7203   0.2766     C
C       0.2216   0.7203   0.7234     C
C       0.2216   0.7499   0.3807     C
C       0.2216   0.7499   0.6193     C
H       0.2246   0.3315   0.1524     H
H       0.2246   0.3315   0.8476     H
H       0.2246   0.6685   0.1524     H
H       0.2246   0.6685   0.8476     H
H       0.2327   0.4069   0.2133     H
H       0.2327   0.4069   0.7867     H
H       0.2327   0.5931   0.2133     H
H       0.2327   0.5931   0.7867     H
H       0.2328   0.1517   0.4023     H
H       0.2328   0.1517   0.5977     H
H       0.2328   0.8483   0.4023     H
H       0.2328   0.8483   0.5977     H
C        0.238   0.2425  0.29744     C
C        0.238   0.2425  0.70256     C
C        0.238   0.7575  0.29744     C
C        0.238   0.7575  0.70256     C
C       0.2425  0.29744    0.238     C
C       0.2425  0.29744    0.762     C
C       0.2425  0.70256    0.238     C
C       0.2425  0.70256    0.762     C
H       0.2435   0.3279   0.4217     H
H       0.2435   0.3279   0.5783     H
H       0.2435   0.6721   0.4217     H
H       0.2435   0.6721   0.5783     H
Zn     0.24864  0.05292      0.5    Zn
Zn     0.24864  0.94708      0.5    Zn
H       0.2491   0.3978    0.291     H
H       0.2491   0.3978    0.709     H
H       0.2491   0.6022    0.291     H
H       0.2491   0.6022    0.709     H
C       0.2501   0.3807   0.2216     C
C       0.2501   0.3807   0.7784     C
C       0.2501   0.6193   0.2216     C
C       0.2501   0.6193   0.7784     C
C      0.25248   0.1836  0.34391     C
C      0.25248   0.1836  0.65609     C
C      0.25248   0.8164  0.34391     C
C      0.25248   0.8164  0.65609     C
C      0.25352  0.15061   0.3791     C
C      0.25352  0.15061   0.6209     C
C      0.25352  0.84939   0.3791     C
C      0.25352  0.84939   0.6209     C
O      0.25901  0.08824  0.44674     O
O      0.25901  0.08824  0.55326     O
O      0.25901  0.91176  0.44674     O
O      0.25901  0.91176  0.55326     O
H       0.2601   0.1169   0.1246     H
H       0.2601   0.1169   0.8754     H
H       0.2601   0.8831   0.1246     H
H       0.2601   0.8831   0.8754     H
H       0.2666   0.2947   0.4551     H
H       0.2666   0.2947   0.5449     H
H       0.2666   0.7053   0.4551     H
H       0.2666   0.7053   0.5449     H
H       0.2667   0.1748   0.1848     H
H       0.2667   0.1748   0.8152     H
H       0.2667   0.8252   0.1848     H
H       0.2667   0.8252   0.8152     H
C       0.2689   0.3088   0.4262     C
C       0.2689   0.3088   0.5738     C
C       0.2689   0.6912   0.4262     C
C       0.2689   0.6912   0.5738     C
C         0.27   0.2723   0.3892     C
C         0.27   0.2723   0.6108     C
C         0.27   0.7277   0.3892     C
C         0.27   0.7277   0.6108     C
C       0.2723   0.3892     0.27     C
C       0.2723   0.3892     0.73     C
C       0.2723   0.6108     0.27     C
C       0.2723   0.6108     0.73     C
H       0.2737   0.3772   0.1996     H
H       0.2737   0.3772   0.8004     H
H       0.2737   0.6228   0.1996     H
H       0.2737   0.6228   0.8004     H
C       0.2766   0.2216   0.2797     C
C       0.2766   0.2216   0.7203     C
C       0.2766   0.7784   0.2797     C
C       0.2766   0.7784   0.7203     C
C       0.2797   0.2766   0.2216     C
C       0.2797   0.2766   0.7784     C
C       0.2797   0.7234   0.2216     C
C       0.2797   0.7234   0.7784     C
H       0.2805   0.2857   0.3615     H
H       0.2805   0.2857   0.6385     H
H       0.2805   0.7143   0.3615     H
H       0.2805   0.7143   0.6385     H
H       0.2822   0.0938   0.1662     H
H       0.2822   0.0938   0.8338     H
H       0.2822   0.9062   0.1662     H
H       0.2822   0.9062   0.8338     H
C      0.28509  0.11775   0.3781     C
C      0.28509  0.11775   0.6219     C
C      0.28509  0.88225   0.3781     C
C      0.28509  0.88225   0.6219     C
C       0.2851   0.1815    0.312     C
C       0.2851   0.1815    0.688     C
C       0.2851   0.8185    0.312     C
C       0.2851   0.8185    0.688     C
H       0.2857   0.3615   0.2805     H
H       0.2857   0.3615   0.7195     H
H       0.2857   0.6385   0.2805     H
H       0.2857   0.6385   0.7195     H
O       0.2861      0.0      0.5     O
C      0.28612  0.08276  0.41461     C
C      0.28612  0.08276  0.58539     C
C      0.28612  0.91724  0.41461     C
C      0.28612  0.91724  0.58539     C
C       0.2862   0.1161   0.1434     C
C       0.2862   0.1161   0.8566     C
C       0.2862   0.8839   0.1434     C
C       0.2862   0.8839   0.8566     C
H       0.2888   0.3395    0.149     H
H       0.2888   0.3395    0.851     H
H       0.2888   0.6605    0.149     H
H       0.2888   0.6605    0.851     H
H        0.291   0.2491   0.3978     H
H        0.291   0.2491   0.6022     H
H        0.291   0.7509   0.3978     H
H        0.291   0.7509   0.6022     H
C       0.2937   0.1677   0.1681     C
C       0.2937   0.1677   0.8319     C
C       0.2937   0.8323   0.1681     C
C       0.2937   0.8323   0.8319     C
H       0.2947   0.4551   0.2666     H
H       0.2947   0.4551   0.7334     H
H       0.2947   0.5449   0.2666     H
H       0.2947   0.5449   0.7334     H
H       0.2958   0.3262   0.4249     H
H       0.2958   0.3262   0.5751     H
H       0.2958   0.6738   0.4249     H
H       0.2958   0.6738   0.5751     H
H       0.2964   0.1898   0.1444     H
H       0.2964   0.1898   0.8556     H
H       0.2964   0.8102   0.1444     H
H       0.2964   0.8102   0.8556     H
C      0.29744    0.238   0.2425     C
C      0.29744    0.238   0.7575     C
C      0.29744    0.762   0.2425     C
C      0.29744    0.762   0.7575     C
C       0.3088   0.4262   0.2689     C
C       0.3088   0.4262   0.7311     C
C       0.3088   0.5738   0.2689     C
C       0.3088   0.5738   0.7311     C
C       0.3111   0.3178   0.1492     C
C       0.3111   0.3178   0.8508     C
C       0.3111   0.6822   0.1492     C
C       0.3111   0.6822   0.8508     C
H        0.312   0.1089   0.1256     H
H        0.312   0.1089   0.8744     H
C        0.312   0.2851   0.1815     C
C        0.312   0.2851   0.8185     C
C        0.312   0.7149   0.1815     C
C        0.312   0.7149   0.8185     C
H        0.312   0.8911   0.1256     H
H        0.312   0.8911   0.8744     H
O      0.31217  0.05167  0.41009     O
O      0.31217  0.05167  0.58991     O
O      0.31217  0.94833  0.41009     O
O      0.31217  0.94833  0.58991     O
C       0.3174   0.1168   0.3445     C
C       0.3174   0.1168   0.6555     C
C       0.3174   0.8832   0.3445     C
C       0.3174   0.8832   0.6555     C
C       0.3178   0.1492   0.3111     C
C       0.3178   0.1492   0.6889     C
C       0.3178   0.8508   0.3111     C
C       0.3178   0.8508   0.6889     C
Zn     0.32268      0.0  0.44636    Zn
Zn     0.32268      0.0  0.55364    Zn
H       0.3262   0.4249   0.2958     H
H       0.3262   0.4249   0.7042     H
H       0.3262   0.5751   0.2958     H
H       0.3262   0.5751   0.7042     H
H       0.3279   0.4217   0.2435     H
H       0.3279   0.4217   0.7565     H
H       0.3279   0.5783   0.2435     H
H       0.3279   0.5783   0.7565     H
H       0.3315   0.1524   0.2246     H
H       0.3315   0.1524   0.7754     H
H       0.3315   0.8476   0.2246     H
H       0.3315   0.8476   0.7754     H
C       0.3344   0.1736   0.2002     C
C       0.3344   0.1736   0.7998     C
C       0.3344   0.8264   0.2002     C
C       0.3344   0.8264   0.7998     C
H       0.3389   0.0942   0.3444     H
H       0.3389   0.0942   0.6556     H
H       0.3389   0.9058   0.3444     H
H       0.3389   0.9058   0.6556     H
C       0.3393   0.2201   0.2196     C
C       0.3393   0.2201   0.7804     C
C       0.3393   0.7799   0.2196     C
C       0.3393   0.7799   0.7804     C
H       0.3395    0.149   0.2888     H
H       0.3395    0.149   0.7112     H
H       0.3395    0.851   0.2888     H
H       0.3395    0.851   0.7112     H
C      0.34391  0.25248   0.1836     C
C      0.34391  0.25248   0.8164     C
C      0.34391  0.74752   0.1836     C
C      0.34391  0.74752   0.8164     C
H       0.3444   0.3389   0.0942     H
H       0.3444   0.3389   0.9058     H
H       0.3444   0.6611   0.0942     H
H       0.3444   0.6611   0.9058     H
C       0.3445   0.3174   0.1168     C
C       0.3445   0.3174   0.8832     C
C       0.3445   0.6826   0.1168     C
C       0.3445   0.6826   0.8832     C
H       0.3615   0.2805   0.2857     H
H       0.3615   0.2805   0.7143     H
H       0.3615   0.7195   0.2857     H
H       0.3615   0.7195   0.7143     H
H       0.3616   0.1662    0.184     H
H       0.3616   0.1662    0.816     H
H       0.3616   0.8338    0.184     H
H       0.3616   0.8338    0.816     H
H       0.3772   0.1996   0.2737     H
H       0.3772   0.1996   0.7263     H
H       0.3772   0.8004   0.2737     H
H       0.3772   0.8004   0.7263     H
C       0.3781  0.28509  0.11775     C
C       0.3781  0.28509  0.88225     C
C       0.3781  0.71491  0.11775     C
C       0.3781  0.71491  0.88225     C
C       0.3791  0.25352  0.15061     C
C       0.3791  0.25352  0.84939     C
C       0.3791  0.74648  0.15061     C
C       0.3791  0.74648  0.84939     C
C       0.3807   0.2216   0.2501     C
C       0.3807   0.2216   0.7499     C
C       0.3807   0.7784   0.2501     C
C       0.3807   0.7784   0.7499     C
O      0.38503      0.0  0.46292     O
O      0.38503      0.0  0.53708     O
C       0.3892     0.27   0.2723     C
C       0.3892     0.27   0.7277     C
C       0.3892     0.73   0.2723     C
C       0.3892     0.73   0.7277     C
H       0.3978    0.291   0.2491     H
H       0.3978    0.291   0.7509     H
H       0.3978    0.709   0.2491     H
H       0.3978    0.709   0.7509     H
H       0.4023   0.2328   0.1517     H
H       0.4023   0.2328   0.8483     H
H       0.4023   0.7672   0.1517     H
H       0.4023   0.7672   0.8483     H
C       0.4043      0.0      0.5     C
H       0.4069   0.2133   0.2327     H
H       0.4069   0.2133   0.7673     H
H       0.4069   0.7867   0.2327     H
H       0.4069   0.7867   0.7673     H
O      0.41009  0.31217  0.05167     O
O      0.41009  0.31217  0.94833     O
O      0.41009  0.68783  0.05167     O
O      0.41009  0.68783  0.94833     O
C      0.41461  0.28612  0.08276     C
C      0.41461  0.28612  0.91724     C
C      0.41461  0.71388  0.08276     C
C      0.41461  0.71388  0.91724     C
H       0.4217   0.2435   0.3279     H
H       0.4217   0.2435   0.6721     H
H       0.4217   0.7565   0.3279     H
H       0.4217   0.7565   0.6721     H
H       0.4249   0.2958   0.3262     H
H       0.4249   0.2958   0.6738     H
H       0.4249   0.7042   0.3262     H
H       0.4249   0.7042   0.6738     H
C       0.4262   0.2689   0.3088     C
C       0.4262   0.2689   0.6912     C
C       0.4262   0.7311   0.3088     C
C       0.4262   0.7311   0.6912     C
H       0.4329   0.4612      0.0     H
H       0.4329   0.5388      0.0     H
Zn     0.44636  0.32268      0.0    Zn
Zn     0.44636  0.67732      0.0    Zn
O      0.44674  0.25901  0.08824     O
O      0.44674  0.25901  0.91176     O
O      0.44674  0.74099  0.08824     O
O      0.44674  0.74099  0.91176     O
C       0.4534      0.0      0.5     C
H       0.4551   0.2666   0.2947     H
H       0.4551   0.2666   0.7053     H
H       0.4551   0.7334   0.2947     H
H       0.4551   0.7334   0.7053     H
C       0.4599  0.47675      0.0     C
C       0.4599  0.52325      0.0     C
H       0.4612      0.0   0.4329     H
H       0.4612      0.0   0.5671     H
O      0.46292  0.38503      0.0     O
O      0.46292  0.61497      0.0     O
C      0.47675      0.0   0.4599     C
C      0.47675      0.0   0.5401     C
C          0.5   0.0239      0.0     C
H          0.5   0.0318   0.0644     H
H          0.5   0.0318   0.9356     H
C          0.5   0.0475   0.0375     C
C          0.5   0.0475   0.9625     C
C          0.5   0.0947   0.0396     C
C          0.5   0.0947   0.9604     C
H          0.5   0.1095    0.067     H
H          0.5   0.1095    0.933     H
C          0.5   0.1181      0.0     C
C          0.5   0.1675      0.0     C
O          0.5  0.18615   0.0376     O
O          0.5  0.18615   0.9624     O
Zn         0.5  0.24864  0.05292    Zn
Zn         0.5  0.24864  0.94708    Zn
O          0.5   0.2861      0.0     O
C          0.5   0.4043      0.0     C
C          0.5   0.4534      0.0     C
C          0.5   0.5466      0.0     C
C          0.5   0.5957      0.0     C
O          0.5   0.7139      0.0     O
Zn         0.5  0.75136  0.05292    Zn
Zn         0.5  0.75136  0.94708    Zn
O          0.5  0.81385   0.0376     O
O          0.5  0.81385   0.9624     O
C          0.5   0.8325      0.0     C
C          0.5   0.8819      0.0     C
H          0.5   0.8905    0.067     H
H          0.5   0.8905    0.933     H
C          0.5   0.9053   0.0396     C
C          0.5   0.9053   0.9604     C
C          0.5   0.9525   0.0375     C
C          0.5   0.9525   0.9625     C
H          0.5   0.9682   0.0644     H
H          0.5   0.9682   0.9356     H
C          0.5   0.9761      0.0     C
C      0.52325      0.0   0.4599     C
C      0.52325      0.0   0.5401     C
O      0.53708  0.38503      0.0     O
O      0.53708  0.61497      0.0     O
H       0.5388      0.0   0.4329     H
H       0.5388      0.0   0.5671     H
C       0.5401  0.47675      0.0     C
C       0.5401  0.52325      0.0     C
H       0.5449   0.2666   0.2947     H
H       0.5449   0.2666   0.7053     H
H       0.5449   0.7334   0.2947     H
H       0.5449   0.7334   0.7053     H
C       0.5466      0.0      0.5     C
O      0.55326  0.25901  0.08824     O
O      0.55326  0.25901  0.91176     O
O      0.55326  0.74099  0.08824     O
O      0.55326  0.74099  0.91176     O
Zn     0.55364  0.32268      0.0    Zn
Zn     0.55364  0.67732      0.0    Zn
H       0.5671   0.4612      0.0     H
H       0.5671   0.5388      0.0     H
C       0.5738   0.2689   0.3088     C
C       0.5738   0.2689   0.6912     C
C       0.5738   0.7311   0.3088     C
C       0.5738   0.7311   0.6912     C
H       0.5751   0.2958   0.3262     H
H       0.5751   0.2958   0.6738     H
H       0.5751   0.7042   0.3262     H
H       0.5751   0.7042   0.6738     H
H       0.5783   0.2435   0.3279     H
H       0.5783   0.2435   0.6721     H
H       0.5783   0.7565   0.3279     H
H       0.5783   0.7565   0.6721     H
C      0.58539  0.28612  0.08276     C
C      0.58539  0.28612  0.91724     C
C      0.58539  0.71388  0.08276     C
C      0.58539  0.71388  0.91724     C
O      0.58991  0.31217  0.05167     O
O      0.58991  0.31217  0.94833     O
O      0.58991  0.68783  0.05167     O
O      0.58991  0.68783  0.94833     O
H       0.5931   0.2133   0.2327     H
H       0.5931   0.2133   0.7673     H
H       0.5931   0.7867   0.2327     H
H       0.5931   0.7867   0.7673     H
C       0.5957      0.0      0.5     C
H       0.5977   0.2328   0.1517     H
H       0.5977   0.2328   0.8483     H
H       0.5977   0.7672   0.1517     H
H       0.5977   0.7672   0.8483     H
H       0.6022    0.291   0.2491     H
H       0.6022    0.291   0.7509     H
H       0.6022    0.709   0.2491     H
H       0.6022    0.709   0.7509     H
C       0.6108     0.27   0.2723     C
C       0.6108     0.27   0.7277     C
C       0.6108     0.73   0.2723     C
C       0.6108     0.73   0.7277     C
O      0.61497      0.0  0.46292     O
O      0.61497      0.0  0.53708     O
C       0.6193   0.2216   0.2501     C
C       0.6193   0.2216   0.7499     C
C       0.6193   0.7784   0.2501     C
C       0.6193   0.7784   0.7499     C
C       0.6209  0.25352  0.15061     C
C       0.6209  0.25352  0.84939     C
C       0.6209  0.74648  0.15061     C
C       0.6209  0.74648  0.84939     C
C       0.6219  0.28509  0.11775     C
C       0.6219  0.28509  0.88225     C
C       0.6219  0.71491  0.11775     C
C       0.6219  0.71491  0.88225     C
H       0.6228   0.1996   0.2737     H
H       0.6228   0.1996   0.7263     H
H       0.6228   0.8004   0.2737     H
H       0.6228   0.8004   0.7263     H
H       0.6384   0.1662    0.184     H
H       0.6384   0.1662    0.816     H
H       0.6384   0.8338    0.184     H
H       0.6384   0.8338    0.816     H
H       0.6385   0.2805   0.2857     H
H       0.6385   0.2805   0.7143     H
H       0.6385   0.7195   0.2857     H
H       0.6385   0.7195   0.7143     H
C       0.6555   0.3174   0.1168     C
C       0.6555   0.3174   0.8832     C
C       0.6555   0.6826   0.1168     C
C       0.6555   0.6826   0.8832     C
H       0.6556   0.3389   0.0942     H
H       0.6556   0.3389   0.9058     H
H       0.6556   0.6611   0.0942     H
H       0.6556   0.6611   0.9058     H
C      0.65609  0.25248   0.1836     C
C      0.65609  0.25248   0.8164     C
C      0.65609  0.74752   0.1836     C
C      0.65609  0.74752   0.8164     C
H       0.6605    0.149   0.2888     H
H       0.6605    0.149   0.7112     H
H       0.6605    0.851   0.2888     H
H       0.6605    0.851   0.7112     H
C       0.6607   0.2201   0.2196     C
C       0.6607   0.2201   0.7804     C
C       0.6607   0.7799   0.2196     C
C       0.6607   0.7799   0.7804     C
H       0.6611   0.0942   0.3444     H
H       0.6611   0.0942   0.6556     H
H       0.6611   0.9058   0.3444     H
H       0.6611   0.9058   0.6556     H
C       0.6656   0.1736   0.2002     C
C       0.6656   0.1736   0.7998     C
C       0.6656   0.8264   0.2002     C
C       0.6656   0.8264   0.7998     C
H       0.6685   0.1524   0.2246     H
H       0.6685   0.1524   0.7754     H
H       0.6685   0.8476   0.2246     H
H       0.6685   0.8476   0.7754     H
H       0.6721   0.4217   0.2435     H
H       0.6721   0.4217   0.7565     H
H       0.6721   0.5783   0.2435     H
H       0.6721   0.5783   0.7565     H
H       0.6738   0.4249   0.2958     H
H       0.6738   0.4249   0.7042     H
H       0.6738   0.5751   0.2958     H
H       0.6738   0.5751   0.7042     H
Zn     0.67732      0.0  0.44636    Zn
Zn     0.67732      0.0  0.55364    Zn
C       0.6822   0.1492   0.3111     C
C       0.6822   0.1492   0.6889     C
C       0.6822   0.8508   0.3111     C
C       0.6822   0.8508   0.6889     C
C       0.6826   0.1168   0.3445     C
C       0.6826   0.1168   0.6555     C
C       0.6826   0.8832   0.3445     C
C       0.6826   0.8832   0.6555     C
O      0.68783  0.05167  0.41009     O
O      0.68783  0.05167  0.58991     O
O      0.68783  0.94833  0.41009     O
O      0.68783  0.94833  0.58991     O
H        0.688   0.1089   0.1256     H
H        0.688   0.1089   0.8744     H
C        0.688   0.2851   0.1815     C
C        0.688   0.2851   0.8185     C
C        0.688   0.7149   0.1815     C
C        0.688   0.7149   0.8185     C
H        0.688   0.8911   0.1256     H
H        0.688   0.8911   0.8744     H
C       0.6889   0.3178   0.1492     C
C       0.6889   0.3178   0.8508     C
C       0.6889   0.6822   0.1492     C
C       0.6889   0.6822   0.8508     C
C       0.6912   0.4262   0.2689     C
C       0.6912   0.4262   0.7311     C
C       0.6912   0.5738   0.2689     C
C       0.6912   0.5738   0.7311     C
C      0.70256    0.238   0.2425     C
C      0.70256    0.238   0.7575     C
C      0.70256    0.762   0.2425     C
C      0.70256    0.762   0.7575     C
H       0.7036   0.1898   0.1444     H
H       0.7036   0.1898   0.8556     H
H       0.7036   0.8102   0.1444     H
H       0.7036   0.8102   0.8556     H
H       0.7042   0.3262   0.4249     H
H       0.7042   0.3262   0.5751     H
H       0.7042   0.6738   0.4249     H
H       0.7042   0.6738   0.5751     H
H       0.7053   0.4551   0.2666     H
H       0.7053   0.4551   0.7334     H
H       0.7053   0.5449   0.2666     H
H       0.7053   0.5449   0.7334     H
C       0.7063   0.1677   0.1681     C
C       0.7063   0.1677   0.8319     C
C       0.7063   0.8323   0.1681     C
C       0.7063   0.8323   0.8319     C
H        0.709   0.2491   0.3978     H
H        0.709   0.2491   0.6022     H
H        0.709   0.7509   0.3978     H
H        0.709   0.7509   0.6022     H
H       0.7112   0.3395    0.149     H
H       0.7112   0.3395    0.851     H
H       0.7112   0.6605    0.149     H
H       0.7112   0.6605    0.851     H
C       0.7138   0.1161   0.1434     C
C       0.7138   0.1161   0.8566     C
C       0.7138   0.8839   0.1434     C
C       0.7138   0.8839   0.8566     C
C      0.71388  0.08276  0.41461     C
C      0.71388  0.08276  0.58539     C
C      0.71388  0.91724  0.41461     C
C      0.71388  0.91724  0.58539     C
O       0.7139      0.0      0.5     O
H       0.7143   0.3615   0.2805     H
H       0.7143   0.3615   0.7195     H
H       0.7143   0.6385   0.2805     H
H       0.7143   0.6385   0.7195     H
C       0.7149   0.1815    0.312     C
C       0.7149   0.1815    0.688     C
C       0.7149   0.8185    0.312     C
C       0.7149   0.8185    0.688     C
C      0.71491  0.11775   0.3781     C
C      0.71491  0.11775   0.6219     C
C      0.71491  0.88225   0.3781     C
C      0.71491  0.88225   0.6219     C
H       0.7178   0.0938   0.1662     H
H       0.7178   0.0938   0.8338     H
H       0.7178   0.9062   0.1662     H
H       0.7178   0.9062   0.8338     H
H       0.7195   0.2857   0.3615     H
H       0.7195   0.2857   0.6385     H
H       0.7195   0.7143   0.3615     H
H       0.7195   0.7143   0.6385     H
C       0.7203   0.2766   0.2216     C
C       0.7203   0.2766   0.7784     C
C       0.7203   0.7234   0.2216     C
C       0.7203   0.7234   0.7784     C
C       0.7234   0.2216   0.2797     C
C       0.7234   0.2216   0.7203     C
C       0.7234   0.7784   0.2797     C
C       0.7234   0.7784   0.7203     C
H       0.7263   0.3772   0.1996     H
H       0.7263   0.3772   0.8004     H
H       0.7263   0.6228   0.1996     H
H       0.7263   0.6228   0.8004     H
C       0.7277   0.3892     0.27     C
C       0.7277   0.3892     0.73     C
C       0.7277   0.6108     0.27     C
C       0.7277   0.6108     0.73     C
C         0.73   0.2723   0.3892     C
C         0.73   0.2723   0.6108     C
C         0.73   0.7277   0.3892     C
C         0.73   0.7277   0.6108     C
C       0.7311   0.3088   0.4262     C
C       0.7311   0.3088   0.5738     C
C       0.7311   0.6912   0.4262     C
C       0.7311   0.6912   0.5738     C
H       0.7333   0.1748   0.1848     H
H       0.7333   0.1748   0.8152     H
H       0.7333   0.8252   0.1848     H
H       0.7333   0.8252   0.8152     H
H       0.7334   0.2947   0.4551     H
H       0.7334   0.2947   0.5449     H
H       0.7334   0.7053   0.4551     H
H       0.7334   0.7053   0.5449     H
H       0.7399   0.1169   0.1246     H
H       0.7399   0.1169   0.8754     H
H       0.7399   0.8831   0.1246     H
H       0.7399   0.8831   0.8754     H
O      0.74099  0.08824  0.44674     O
O      0.74099  0.08824  0.55326     O
O      0.74099  0.91176  0.44674     O
O      0.74099  0.91176  0.55326     O
C      0.74648  0.15061   0.3791     C
C      0.74648  0.15061   0.6209     C
C      0.74648  0.84939   0.3791     C
C      0.74648  0.84939   0.6209     C
C      0.74752   0.1836  0.34391     C
C      0.74752   0.1836  0.65609     C
C      0.74752   0.8164  0.34391     C
C      0.74752   0.8164  0.65609     C
C       0.7499   0.3807   0.2216     C
C       0.7499   0.3807   0.7784     C
C       0.7499   0.6193   0.2216     C
C       0.7499   0.6193   0.7784     C
H       0.7509   0.3978    0.291     H
H       0.7509   0.3978    0.709     H
H       0.7509   0.6022    0.291     H
H       0.7509   0.6022    0.709     H
Zn     0.75136  0.05292      0.5    Zn
Zn     0.75136  0.94708      0.5    Zn
H       0.7565   0.3279   0.4217     H
H       0.7565   0.3279   0.5783     H
H       0.7565   0.6721   0.4217     H
H       0.7565   0.6721   0.5783     H
C       0.7575  0.29744    0.238     C
C       0.7575  0.29744    0.762     C
C       0.7575  0.70256    0.238     C
C       0.7575  0.70256    0.762     C
C        0.762   0.2425  0.29744     C
C        0.762   0.2425  0.70256     C
C        0.762   0.7575  0.29744     C
C        0.762   0.7575  0.70256     C
H       0.7672   0.1517   0.4023     H
H       0.7672   0.1517   0.5977     H
H       0.7672   0.8483   0.4023     H
H       0.7672   0.8483   0.5977     H
H       0.7673   0.4069   0.2133     H
H       0.7673   0.4069   0.7867     H
H       0.7673   0.5931   0.2133     H
H       0.7673   0.5931   0.7867     H
H       0.7754   0.3315   0.1524     H
H       0.7754   0.3315   0.8476     H
H       0.7754   0.6685   0.1524     H
H       0.7754   0.6685   0.8476     H
C       0.7784   0.2501   0.3807     C
C       0.7784   0.2501   0.6193     C
C       0.7784   0.2797   0.2766     C
C       0.7784   0.2797   0.7234     C
C       0.7784   0.7203   0.2766     C
C       0.7784   0.7203   0.7234     C
C       0.7784   0.7499   0.3807     C
C       0.7784   0.7499   0.6193     C
C       0.7799   0.2196   0.3393     C
C       0.7799   0.2196   0.6607     C
C       0.7799   0.7804   0.3393     C
C       0.7799   0.7804   0.6607     C
C       0.7804   0.3393   0.2201     C
C       0.7804   0.3393   0.7799     C
C       0.7804   0.6607   0.2201     C
C       0.7804   0.6607   0.7799     C
H       0.7867   0.2327   0.4069     H
H       0.7867   0.2327   0.5931     H
H       0.7867   0.7673   0.4069     H
H       0.7867   0.7673   0.5931     H
C       0.7998   0.3344   0.1736     C
C       0.7998   0.3344   0.8264     C
C       0.7998   0.6656   0.1736     C
C       0.7998   0.6656   0.8264     C
H       0.8004   0.2737   0.3772     H
H       0.8004   0.2737   0.6228     H
H       0.8004   0.7263   0.3772     H
H       0.8004   0.7263   0.6228     H
H       0.8102   0.1444   0.2964     H
H       0.8102   0.1444   0.7036     H
H       0.8102   0.8556   0.2964     H
H       0.8102   0.8556   0.7036     H
O      0.81385   0.0376      0.5     O
O      0.81385   0.9624      0.5     O
H       0.8152   0.2667   0.1748     H
H       0.8152   0.2667   0.8252     H
H       0.8152   0.7333   0.1748     H
H       0.8152   0.7333   0.8252     H
H        0.816   0.3616   0.1662     H
H        0.816   0.3616   0.8338     H
H        0.816   0.6384   0.1662     H
H        0.816   0.6384   0.8338     H
C       0.8164  0.34391  0.25248     C
C       0.8164  0.34391  0.74752     C
C       0.8164  0.65609  0.25248     C
C       0.8164  0.65609  0.74752     C
C       0.8185    0.312   0.2851     C
C       0.8185    0.312   0.7149     C
C       0.8185    0.688   0.2851     C
C       0.8185    0.688   0.7149     C
H       0.8252   0.1848   0.2667     H
H       0.8252   0.1848   0.7333     H
H       0.8252   0.8152   0.2667     H
H       0.8252   0.8152   0.7333     H
C       0.8264   0.2002   0.3344     C
C       0.8264   0.2002   0.6656     C
C       0.8264   0.7998   0.3344     C
C       0.8264   0.7998   0.6656     C
C       0.8319   0.2937   0.1677     C
C       0.8319   0.2937   0.8323     C
C       0.8319   0.7063   0.1677     C
C       0.8319   0.7063   0.8323     C
C       0.8323   0.1681   0.2937     C
C       0.8323   0.1681   0.7063     C
C       0.8323   0.8319   0.2937     C
C       0.8323   0.8319   0.7063     C
C       0.8325      0.0      0.5     C
H       0.8338    0.184   0.3616     H
H       0.8338    0.184   0.6384     H
H       0.8338   0.2822   0.0938     H
H       0.8338   0.2822   0.9062     H
H       0.8338   0.7178   0.0938     H
H       0.8338   0.7178   0.9062     H
H       0.8338    0.816   0.3616     H
H       0.8338    0.816   0.6384     H
H       0.8476   0.2246   0.3315     H
H       0.8476   0.2246   0.6685     H
H       0.8476   0.7754   0.3315     H
H       0.8476   0.7754   0.6685     H
H       0.8483   0.4023   0.2328     H
H       0.8483   0.4023   0.7672     H
H       0.8483   0.5977   0.2328     H
H       0.8483   0.5977   0.7672     H
C      0.84939   0.3791  0.25352     C
C      0.84939   0.3791  0.74648     C
C      0.84939   0.6209  0.25352     C
C      0.84939   0.6209  0.74648     C
C       0.8508   0.3111   0.3178     C
C       0.8508   0.3111   0.6822     C
C       0.8508   0.6889   0.3178     C
C       0.8508   0.6889   0.6822     C
H        0.851   0.2888   0.3395     H
H        0.851   0.2888   0.6605     H
H        0.851   0.7112   0.3395     H
H        0.851   0.7112   0.6605     H
H       0.8556   0.2964   0.1898     H
H       0.8556   0.2964   0.8102     H
H       0.8556   0.7036   0.1898     H
H       0.8556   0.7036   0.8102     H
C       0.8566   0.2862   0.1161     C
C       0.8566   0.2862   0.8839     C
C       0.8566   0.7138   0.1161     C
C       0.8566   0.7138   0.8839     C
H       0.8744    0.312   0.1089     H
H       0.8744    0.312   0.8911     H
H       0.8744    0.688   0.1089     H
H       0.8744    0.688   0.8911     H
H       0.8754   0.2601   0.1169     H
H       0.8754   0.2601   0.8831     H
H       0.8754   0.7399   0.1169     H
H       0.8754   0.7399   0.8831     H
C       0.8819      0.0      0.5     C
C      0.88225   0.3781  0.28509     C
C      0.88225   0.3781  0.71491     C
C      0.88225   0.6219  0.28509     C
C      0.88225   0.6219  0.71491     C
H       0.8831   0.1246   0.2601     H
H       0.8831   0.1246   0.7399     H
H       0.8831   0.8754   0.2601     H
H       0.8831   0.8754   0.7399     H
C       0.8832   0.3445   0.3174     C
C       0.8832   0.3445   0.6826     C
C       0.8832   0.6555   0.3174     C
C       0.8832   0.6555   0.6826     C
C       0.8839   0.1434   0.2862     C
C       0.8839   0.1434   0.7138     C
C       0.8839   0.8566   0.2862     C
C       0.8839   0.8566   0.7138     C
H       0.8905    0.067      0.5     H
H       0.8905    0.933      0.5     H
H       0.8911   0.1256    0.312     H
H       0.8911   0.1256    0.688     H
H       0.8911   0.8744    0.312     H
H       0.8911   0.8744    0.688     H
C       0.9053   0.0396      0.5     C
C       0.9053   0.9604      0.5     C
H       0.9058   0.3444   0.3389     H
H       0.9058   0.3444   0.6611     H
H       0.9058   0.6556   0.3389     H
H       0.9058   0.6556   0.6611     H
H       0.9062   0.1662   0.2822     H
H       0.9062   0.1662   0.7178     H
H       0.9062   0.8338   0.2822     H
H       0.9062   0.8338   0.7178     H
O      0.91176  0.44674  0.25901     O
O      0.91176  0.44674  0.74099     O
O      0.91176  0.55326  0.25901     O
O      0.91176  0.55326  0.74099     O
C      0.91724  0.41461  0.28612     C
C      0.91724  0.41461  0.71388     C
C      0.91724  0.58539  0.28612     C
C      0.91724  0.58539  0.71388     C
H        0.933      0.5   0.1095     H
H        0.933      0.5   0.8905     H
H       0.9356      0.5   0.0318     H
H       0.9356      0.5   0.9682     H
Zn     0.94708      0.5  0.24864    Zn
Zn     0.94708      0.5  0.75136    Zn
O      0.94833  0.41009  0.31217     O
O      0.94833  0.41009  0.68783     O
O      0.94833  0.58991  0.31217     O
O      0.94833  0.58991  0.68783     O
C       0.9525   0.0375      0.5     C
C       0.9525   0.9625      0.5     C
C       0.9604      0.5   0.0947     C
C       0.9604      0.5   0.9053     C
O       0.9624      0.5  0.18615     O
O       0.9624      0.5  0.81385     O
C       0.9625      0.5   0.0475     C
C       0.9625      0.5   0.9525     C
H       0.9682   0.0644      0.5     H
H       0.9682   0.9356      0.5     H
C       0.9761      0.0      0.5     C
