data_I
_chemical_name_common  '/home/zhangsd/repos/MofS-CGCNN/ML/data/WS24/clean_cifs/YUQNAB'
_cell_length_a 20.90490
_cell_length_b 14.68080
_cell_length_c 14.25150
_cell_angle_alpha 90.00000
_cell_angle_beta  108.04300
_cell_angle_gamma 90.00000
_space_group_name_H-M_alt      'P 1'


loop_
_space_group_symop_operation_xyz
  'x, y, z' 

loop_
_atom_site_label
_atom_site_fract_x
_atom_site_fract_y
_atom_site_fract_z
_atom_site_type_symbol
Ag         0.0  0.28848     0.25    Ag
Ag         0.0  0.71152     0.75    Ag
C      0.00785   0.0926   0.4082     C
C      0.00785   0.9074   0.9082     C
C      0.00927   0.0044   0.3755     C
C      0.00927   0.9956   0.8755     C
H       0.0481   0.1052   0.6849     H
H       0.0481   0.8948   0.1849     H
C      0.04927   0.0446    0.662     C
C      0.04927   0.9554    0.162     C
N      0.05015   0.3935   0.1727     N
N      0.05015   0.6065   0.6727     N
H       0.0511   0.0229    0.879     H
H       0.0511   0.9771    0.379     H
C      0.05329   0.1328   0.0978     C
C      0.05329   0.8672   0.5978     C
H       0.0545   0.1939   0.0766     H
H       0.0545   0.8061   0.5766     H
H       0.0649   0.1918   0.4979     H
H       0.0649   0.8082   0.9979     H
C        0.069   0.4494   0.1333     C
C        0.069   0.5506   0.6333     C
C      0.07201   0.1447   0.4524     C
C      0.07201   0.8553   0.9524     C
H       0.0781   0.4495   0.9552     H
H       0.0781   0.5505   0.4552     H
C      0.09337   0.4797   0.5835     C
C      0.09337   0.5203   0.0835     C
C      0.09377   0.4945   0.4876     C
C      0.09377   0.5055   0.9876     C
S      0.09909  0.19833  0.35682     S
S      0.09909  0.80167  0.85682     S
H       0.1075   0.1027    0.491     H
H       0.1075   0.8973    0.991     H
C      0.11003   0.0039   0.6658     C
C      0.11003   0.9961   0.1658     C
C        0.112   0.0848   0.1341     C
C        0.112   0.9152   0.6341     C
H       0.1161   0.3887   0.6976     H
H       0.1161   0.6113   0.1976     H
C      0.11678   0.3985    0.632     C
C      0.11678   0.6015    0.132     C
C      0.11723   0.4267     0.44     C
C      0.11723   0.5733     0.94     C
H       0.1174   0.4363   0.3742     H
H       0.1174   0.5637   0.8742     H
C      0.14068   0.3445   0.4864     C
C      0.14068   0.6555   0.9864     C
C      0.14102   0.3322   0.5831     C
C      0.14102   0.6678   0.0831     C
H       0.1538   0.1123   0.1376     H
H       0.1538   0.8877   0.6376     H
H       0.1583   0.2771   0.6163     H
H       0.1583   0.7229   0.1163     H
C      0.16567   0.2719   0.4327     C
C      0.16567   0.7281   0.9327     C
C      0.17168   0.0558   0.6982     C
C      0.17168   0.9442   0.1982     C
H       0.1891   0.3011     0.39     H
H       0.1891   0.6989     0.89     H
H       0.1989   0.2338   0.4816     H
H       0.1989   0.7662   0.9816     H
N      0.22003   0.0966   0.7189     N
N      0.22003   0.9034   0.2189     N
H       0.2549   0.4285   0.9931     H
H       0.2549   0.5715   0.4931     H
H       0.2568   0.3809   0.8202     H
H       0.2568   0.6191   0.3202     H
H       0.2702   0.4479   0.6001     H
H       0.2702   0.5521   0.1001     H
C      0.28337   0.4773   0.9877     C
C      0.28337   0.5227   0.4877     C
C       0.2922   0.4496    0.551     C
C       0.2922   0.5504    0.051     C
C      0.30549   0.3934   0.8485     C
C      0.30549   0.6066   0.3485     C
C      0.31561    0.474    0.916     C
C      0.31561    0.526    0.416     C
Ag     0.32055  0.16716  0.79086    Ag
Ag     0.32055  0.83284  0.29086    Ag
H       0.3234   0.4075   0.7935     H
H       0.3234   0.5925   0.2935     H
C       0.3335   0.3787   0.5423     C
C       0.3335   0.6213   0.0423     C
C      0.34208   0.3018   0.6078     C
C      0.34208   0.6982   0.1078     C
N      0.34678   0.2418   0.6593     N
N      0.34678   0.7582   0.1593     N
S      0.34752  0.29312  0.91362     S
S      0.34752  0.70688  0.41362     S
C      0.35748   0.4549   0.4092     C
C      0.35748   0.5451   0.9092     C
C      0.36636   0.3812   0.4716     C
C      0.36636   0.6188   0.9716     C
N      0.37768   0.0316   0.8238     N
N      0.37768   0.9684   0.3238     N
H       0.3803   0.4571   0.3611     H
H       0.3803   0.5429   0.8611     H
H       0.3948   0.3323   0.4662     H
H       0.3948   0.6677   0.9662     H
C      0.40573   0.0297   0.3639     C
C      0.40573   0.9703   0.8639     C
C      0.43452   0.3257    0.931     C
C      0.43452   0.6743    0.431     C
H       0.4409   0.0699   0.5521     H
H       0.4409   0.9301   0.0521     H
H       0.4417   0.3359   0.8663     H
H       0.4417   0.6641   0.3663     H
C       0.4436   0.1064   0.4152     C
C       0.4436   0.8936   0.9152     C
H       0.4454   0.3828   0.9697     H
H       0.4454   0.6172   0.4697     H
H       0.4565   0.1665   0.2936     H
H       0.4565   0.8335   0.7936     H
C      0.45779   0.1137   0.5167     C
C      0.45779   0.8863   0.0167     C
C      0.46712   0.1711   0.3633     C
C      0.46712   0.8289   0.8633     C
H       0.4778   0.2866   0.1224     H
H       0.4778   0.7134   0.6224     H
C      0.47843   0.2497    0.985     C
C      0.47843   0.7503    0.485     C
H       0.4931   0.1909   0.8646     H
H       0.4931   0.8091   0.3646     H
C      0.49404   0.2422   0.0869     C
C      0.49404   0.7578   0.5869     C
C       0.4969   0.1856   0.5659     C
C       0.4969   0.8144   0.0659     C
C       0.5031   0.1856   0.9341     C
C       0.5031   0.8144   0.4341     C
C      0.50596   0.2422   0.4131     C
C      0.50596   0.7578   0.9131     C
H       0.5069   0.1909   0.6354     H
H       0.5069   0.8091   0.1354     H
C      0.52157   0.2497    0.515     C
C      0.52157   0.7503    0.015     C
H       0.5222   0.2866   0.3776     H
H       0.5222   0.7134   0.8776     H
C      0.53288   0.1711   0.1367     C
C      0.53288   0.8289   0.6367     C
C      0.54221   0.1137   0.9833     C
C      0.54221   0.8863   0.4833     C
H       0.5435   0.1665   0.2064     H
H       0.5435   0.8335   0.7064     H
H       0.5546   0.3828   0.5303     H
H       0.5546   0.6172   0.0303     H
C       0.5564   0.1064   0.0848     C
C       0.5564   0.8936   0.5848     C
H       0.5583   0.3359   0.6337     H
H       0.5583   0.6641   0.1337     H
H       0.5591   0.0699   0.9479     H
H       0.5591   0.9301   0.4479     H
C      0.56548   0.3257    0.569     C
C      0.56548   0.6743    0.069     C
C      0.59427   0.0297   0.1361     C
C      0.59427   0.9703   0.6361     C
H       0.6052   0.3323   0.0338     H
H       0.6052   0.6677   0.5338     H
H       0.6197   0.4571   0.1389     H
H       0.6197   0.5429   0.6389     H
N      0.62232   0.0316   0.6762     N
N      0.62232   0.9684   0.1762     N
C      0.63364   0.3812   0.0284     C
C      0.63364   0.6188   0.5284     C
C      0.64252   0.4549   0.0908     C
C      0.64252   0.5451   0.5908     C
S      0.65248  0.29312  0.58638     S
S      0.65248  0.70688  0.08638     S
N      0.65322   0.2418   0.8407     N
N      0.65322   0.7582   0.3407     N
C      0.65792   0.3018   0.8922     C
C      0.65792   0.6982   0.3922     C
C       0.6665   0.3787   0.9577     C
C       0.6665   0.6213   0.4577     C
H       0.6766   0.4075   0.7065     H
H       0.6766   0.5925   0.2065     H
Ag     0.67945  0.16716  0.70914    Ag
Ag     0.67945  0.83284  0.20914    Ag
C      0.68439    0.474    0.584     C
C      0.68439    0.526    0.084     C
C      0.69451   0.3934   0.6515     C
C      0.69451   0.6066   0.1515     C
C       0.7078   0.4496    0.949     C
C       0.7078   0.5504    0.449     C
C      0.71663   0.4773   0.5123     C
C      0.71663   0.5227   0.0123     C
H       0.7298   0.4479   0.8999     H
H       0.7298   0.5521   0.3999     H
H       0.7432   0.3809   0.6798     H
H       0.7432   0.6191   0.1798     H
H       0.7451   0.4285   0.5069     H
H       0.7451   0.5715   0.0069     H
N      0.77997   0.0966   0.7811     N
N      0.77997   0.9034   0.2811     N
H       0.8011   0.2338   0.0184     H
H       0.8011   0.7662   0.5184     H
H       0.8109   0.3011     0.11     H
H       0.8109   0.6989     0.61     H
C      0.82832   0.0558   0.8018     C
C      0.82832   0.9442   0.3018     C
C      0.83433   0.2719   0.0673     C
C      0.83433   0.7281   0.5673     C
H       0.8417   0.2771   0.8837     H
H       0.8417   0.7229   0.3837     H
H       0.8462   0.1123   0.3624     H
H       0.8462   0.8877   0.8624     H
C      0.85898   0.3322   0.9169     C
C      0.85898   0.6678   0.4169     C
C      0.85932   0.3445   0.0136     C
C      0.85932   0.6555   0.5136     C
H       0.8826   0.4363   0.1258     H
H       0.8826   0.5637   0.6258     H
C      0.88277   0.4267     0.06     C
C      0.88277   0.5733     0.56     C
C      0.88322   0.3985    0.868     C
C      0.88322   0.6015    0.368     C
H       0.8839   0.3887   0.8024     H
H       0.8839   0.6113   0.3024     H
C        0.888   0.0848   0.3659     C
C        0.888   0.9152   0.8659     C
C      0.88997   0.0039   0.8342     C
C      0.88997   0.9961   0.3342     C
H       0.8925   0.1027    0.009     H
H       0.8925   0.8973    0.509     H
S      0.90091  0.19833  0.14318     S
S      0.90091  0.80167  0.64318     S
C      0.90623   0.4945   0.0124     C
C      0.90623   0.5055   0.5124     C
C      0.90663   0.4797   0.9165     C
C      0.90663   0.5203   0.4165     C
H       0.9219   0.4495   0.5448     H
H       0.9219   0.5505   0.0448     H
C      0.92799   0.1447   0.0476     C
C      0.92799   0.8553   0.5476     C
C        0.931   0.4494   0.3667     C
C        0.931   0.5506   0.8667     C
H       0.9351   0.1918   0.0021     H
H       0.9351   0.8082   0.5021     H
H       0.9455   0.1939   0.4234     H
H       0.9455   0.8061   0.9234     H
C      0.94671   0.1328   0.4022     C
C      0.94671   0.8672   0.9022     C
H       0.9489   0.0229    0.621     H
H       0.9489   0.9771    0.121     H
N      0.94985   0.3935   0.3273     N
N      0.94985   0.6065   0.8273     N
C      0.95073   0.0446    0.838     C
C      0.95073   0.9554    0.338     C
H       0.9519   0.1052   0.8151     H
H       0.9519   0.8948   0.3151     H
C      0.99073   0.0044   0.1245     C
C      0.99073   0.9956   0.6245     C
C      0.99215   0.0926   0.0918     C
C      0.99215   0.9074   0.5918     C
