data_I
_chemical_name_common  '/home/zhangsd/repos/MofS-CGCNN/ML/data/WS24/clean_cifs/Zn-DMOF-TM0_5'
_cell_length_a 10.92882
_cell_length_b 10.92882
_cell_length_c  9.60841
_cell_angle_alpha 90.00000
_cell_angle_beta  90.00000
_cell_angle_gamma 90.00000
_space_group_name_H-M_alt      'P 1'


loop_
_space_group_symop_operation_xyz
  'x, y, z' 

loop_
_atom_site_label
_atom_site_fract_x
_atom_site_fract_y
_atom_site_fract_z
_atom_site_type_symbol
Zn        -0.5      0.5 -0.150057    Zn
Zn        -0.5      0.5 0.150063    Zn
O     -0.3176684  0.48388 -0.1154283     O
O     -0.3176684  0.48388 0.1154317     O
C     -0.26478      0.5      0.0     C
H     -0.22073794144136896 0.5468607295507035 -0.24548351751112665     H
H     -0.220722417412984 0.4531392704492965 0.24554908892649796     H
H     -0.15063811768124488 0.40627854089859294 -0.29201783522695135     H
H     -0.15061675047809825 0.593721459101407 0.2920720170757991     H
C     -0.13344372500703353      0.5 -0.2585078752483642     C
C     -0.1334265662394847      0.5 0.25855926387260864     C
C     -0.12748      0.5      0.0     C
H     -0.08053829392112068 0.5468607295507038 -0.3385521529427759     H
H     -0.0805110835432124 0.45313927044929636 0.33859494522510003     H
C     -0.0633382      0.5 -0.12188     C
C     -0.0633382      0.5 0.12191999999999999     C
C     0.0633418      0.5 -0.12188     C
C     0.0633418      0.5 0.12191999999999999     C
H     0.08046641422395097 0.5468607295507036 0.3385998875746684     H
H     0.08049361742657093 0.4531392704492965 -0.3385571039330234     H
C      0.12752      0.5      0.0     C
C     0.13339972480368406      0.5 0.25857945928061526     C
C     0.1334168811908736      0.5 -0.25852807886402757     C
H     0.15058244284044442 0.4062785408985928 0.29209716569933974     H
H     0.15060380707941431 0.5937214591014071 -0.29204299407119505     H
H     0.22069847145693805 0.5468607295507035 0.24559444382401086     H
H     0.22071399673225792 0.4531392704492966 -0.2455288842093667     H
C      0.26482      0.5      0.0     C
O     0.3176716  0.48388 -0.1154283     O
O     0.3176716  0.48388 0.1154317     O
H      0.32204 0.563039 0.383203     H
H     0.322044 0.563034 0.6169469999999999     H
H     0.322052 0.437111 0.38320799999999994     H
H     0.322056 0.43711600000000006 0.6169419999999999     H
C      0.41315  0.41315  0.42017     C
C      0.41315  0.41315  0.57997     C
C      0.41315  0.58695  0.42017     C
C      0.41315  0.58695  0.57997     C
H     0.437111 0.322052 0.38320799999999994     H
H     0.43711600000000006 0.322056 0.6169419999999999     H
H     0.43716600000000005 0.678032 0.383203     H
H      0.43717 0.678028 0.6169469999999999     H
O      0.48388 -0.3176684 -0.1154283     O
O      0.48388 -0.3176684 0.1154317     O
O      0.48388 0.3176716 -0.1154283     O
O      0.48388 0.3176716 0.1154317     O
Zn         0.5     -0.5 -0.150057    Zn
Zn         0.5     -0.5 0.150063    Zn
C          0.5 -0.26478      0.0     C
C          0.5 -0.12748      0.0     C
H          0.5 -0.112484 0.220514     H
H          0.5 -0.112478 -0.220478     H
C          0.5 -0.0633382 -0.12188     C
C          0.5 -0.0633382 0.12191999999999999     C
C          0.5 0.0633418 -0.12188     C
C          0.5 0.0633418 0.12191999999999999     C
H          0.5 0.112471 -0.22048499999999996     H
H          0.5 0.11247700000000001 0.220521     H
C          0.5  0.12752      0.0     C
C          0.5  0.26482      0.0     C
Zn         0.5      0.5 -0.150057    Zn
Zn         0.5      0.5 0.150063    Zn
N          0.5      0.5  0.36594     N
N          0.5      0.5  0.63414     N
Zn         0.5      0.5 0.849943    Zn
C      0.62297      0.5 0.41946999999999995     C
C      0.62297      0.5  0.58067     C
H      0.67036  0.41864  0.61777     H
H      0.67036  0.58136  0.61777     H
H     0.670366  0.41864  0.38238     H
H     0.670366  0.58136  0.38238     H
