data_I
_chemical_name_common  '/home/zhangsd/repos/MofS-CGCNN/ML/data/WS24/clean_cifs/Zn-MOF-74'
_cell_length_a 25.93221
_cell_length_b 25.93221
_cell_length_c  6.83654
_cell_angle_alpha 90.00000
_cell_angle_beta  90.00000
_cell_angle_gamma 120.00000
_space_group_name_H-M_alt      'P 1'


loop_
_space_group_symop_operation_xyz
  'x, y, z' 

loop_
_atom_site_label
_atom_site_fract_x
_atom_site_fract_y
_atom_site_fract_z
_atom_site_type_symbol
H     -0.442227 0.138885 0.551501     H
O     -0.4150584 -0.0218889  0.33264     O
H     -0.408579 0.151242 0.316642     H
O     -0.4061383 0.0316613 -0.07106     O
C     -0.40125  0.16517 0.469215     C
H     -0.387951 0.212125 0.478746     H
H     -0.374606 0.145966 0.852166     H
Zn    -0.368817 -0.05325282 0.479566    Zn
Zn    -0.368817 -0.05325182 0.479576    Zn
Zn    -0.368817 -0.053246 0.479566    Zn
O     -0.3604784 0.0121412  0.69004     O
N     -0.35328  0.15593  0.55247     N
Zn    -0.35109683 0.035493 0.146236    Zn
Zn    -0.351096 0.035493 0.146236    Zn
O     -0.3462884  0.11163  0.27835     O
O     -0.3454688 -0.03928  0.02334     O
C     -0.33615  0.17198 0.758613     C
C     -0.33296  0.12796  0.44669     C
H     -0.32033 0.219206 0.779411     H
O     -0.31148 -0.0598489  0.66594     O
H     -0.300925 0.118343 0.516294     H
H     -0.300855 0.162628 0.796592     H
O     -0.29408 0.0271416  0.35664     O
Zn    -0.28008082 0.017764 -0.187094    Zn
Zn    -0.28008082 0.017764 0.812906    Zn
Zn    -0.28008082 0.01776417 -0.187094    Zn
Zn    -0.28008082 0.01776417 0.812906    Zn
Zn    -0.28007982 0.017764 -0.187104    Zn
Zn    -0.28007982 0.017764 0.812896    Zn
Zn    -0.280077 0.01776417 -0.187094    Zn
Zn    -0.280077 0.01776417 0.812906    Zn
Zn    -0.280076 0.01776317 -0.187104    Zn
Zn    -0.280076 0.01776317 0.812896    Zn
O     -0.2734889 0.0817216 -0.00066     O
H     -0.266729 0.278702 0.187819     H
H     -0.247677  0.22447 0.115303     H
H     -0.247403 -0.0322061  1.18314     H
C     -0.2460584  0.06993  0.42165     C
C     -0.23304  0.26545 0.197515     C
O     -0.22887 0.0728117  0.59564     O
H     -0.226459 0.258151 0.350135     H
C     -0.2221084  0.12163  0.08575     C
O     -0.20877 0.0129616  0.94505     O
C     -0.2074384  0.11963  0.28465     C
H     -0.206159 0.346332 -0.11289     H
C     -0.20574 -0.00026  1.11339     C
H     -0.18983   0.1709 -0.179606     H
H     -0.187107 0.292101 -0.185406     H
H     -0.185677 0.0160699   1.5101     H
C     -0.1800384  0.16883 -0.02585     C
H     -0.177412 -0.0450796  1.43522     H
N     -0.17587  0.31342  0.11437     N
C     -0.17473  0.33055 -0.091887     C
C     -0.15855  0.00295 1.425313     C
N     -0.15748  0.02002  1.21917     N
C     -0.1532884  0.16453  0.35925     C
H     -0.143464 0.162413 0.512942     H
H     -0.130082 0.365871 -0.129723     H
C     -0.12754  0.33374  0.22019     C
C     -0.1258884  0.21373  0.04875     C
O     -0.12447 0.3203816  0.38845     O
H     -0.113352 0.0252422    1.483     H
C     -0.1112184  0.21183  0.24765     C
O     -0.1044789 0.2605317 -0.26216     O
H     -0.104336 0.107002  1.10398     H
C     -0.10026  0.06805 1.135915     C
H     -0.0901404 0.0522566  1.00171     H
C     -0.0872684  0.26343 -0.08825     C
H     -0.0859103 0.365822 0.150578     H
H     -0.064566 0.0799258  1.24133     H
O     -0.0598489 0.2516116  0.33414     O
Zn    -0.05325282 0.31557017 -0.479554    Zn
Zn    -0.05325282 0.31557017 0.520446    Zn
Zn    -0.05325282 0.315574 -0.479554    Zn
Zn    -0.05325282 0.315574 0.520446    Zn
Zn    -0.05325182 0.31556917 -0.479564    Zn
Zn    -0.05325182 0.31556917 0.520436    Zn
Zn    -0.05325182 0.315574 -0.479564    Zn
Zn    -0.05325182 0.315574 0.520436    Zn
Zn    -0.053246 0.31557017 -0.479554    Zn
Zn    -0.053246 0.31557017 0.520446    Zn
O     -0.03928 0.3061916 -0.02326     O
Zn    -0.035487 0.613413 0.146236    Zn
Zn    -0.035487 0.613413 1.146236    Zn
Zn    -0.035487 0.613414 0.146236    Zn
Zn    -0.035487 0.613414 1.146236    Zn
Zn    -0.035487 0.61341418 0.146236    Zn
Zn    -0.035487 0.61341418 1.146236    Zn
H     -0.0324021 0.170758 -0.463155     H
H     -0.0322476 0.215102 -0.183042     H
O     -0.03167 0.5621911  0.92894     O
H     -0.02737 0.476838 0.846405     H
O     -0.0271384 0.6788012  0.35664     O
O     -0.0218889 0.3931811  0.66744     O
Zn    -0.01776383 0.702153 0.812906    Zn
Zn    -0.01776383 0.702163 0.812906    Zn
Zn    -0.01776283 0.702163 0.812896    Zn
Zn    -0.017756 0.702163 0.812896    Zn
Zn    -0.017756 0.702163 0.812906    Zn
C     -0.0173384 0.5794016  0.75505     C
C     -0.0155084 0.4866316  0.69265     C
H     -0.0127701 0.114286  -0.4464     H
O     -0.0121388 0.6274011  0.69004     O
C     -0.0103584 0.4445616  0.58105     C
C     -0.0062784 0.5407816  0.61805     C
C     -0.00026  0.20546 -0.11321     C
C      0.00295  0.16148 -0.425287     C
C     0.0062716 0.4592316  0.38215     C
C     0.0103516 0.5554516  0.41915     C
O     0.0121316 0.3726111  0.31014     O
O     0.0129616  0.22183  0.05505     O
C     0.0155016 0.5133816  0.30755     C
C     0.0173316 0.4206116  0.24515     C
Zn    0.01776317 0.297843 0.187116    Zn
Zn    0.01776317 0.297843 1.187116    Zn
Zn    0.017764 0.297843 0.187106    Zn
Zn    0.017764 0.297843 0.187116    Zn
Zn    0.017764 0.297843 1.187106    Zn
Zn    0.017764 0.297843 1.187116    Zn
Zn    0.01776417 0.297843 0.187106    Zn
Zn    0.01776417 0.297843 1.187106    Zn
Zn    0.01776417 0.297853 0.187106    Zn
Zn    0.01776417 0.297853 1.187106    Zn
N      0.02002  0.17743 -0.21903     N
O     0.0218811 0.6068311  0.33274     O
O     0.0271317 0.3212012  0.64344     O
H     0.0273632 0.523176 0.153795     H
O     0.0316613 0.4378111  0.07114     O
Zn    0.035493 0.38658618 -0.146224    Zn
Zn    0.035493 0.38658618 0.853776    Zn
Zn    0.035493 0.386593 -0.146224    Zn
Zn    0.035493 0.386593 0.853776    Zn
Zn    0.035493 0.386594 -0.146224    Zn
Zn    0.035493 0.386594 0.853776    Zn
O     0.0392711 0.6938017  1.02334     O
H     0.0414097 0.187611 -0.518703     H
Zn    0.05325218 0.68443117 0.479576    Zn
Zn    0.05325218 0.68443117 1.479576    Zn
Zn    0.05325218 0.684434 0.479576    Zn
Zn    0.05325218 0.684434 1.479576    Zn
Zn    0.053253 0.68443017 0.479566    Zn
Zn    0.053253 0.68443017 1.479566    Zn
Zn    0.05325318 0.684434 0.479566    Zn
Zn    0.05325318 0.684434 1.479566    Zn
Zn    0.053254 0.68443017 0.479566    Zn
Zn    0.053254 0.68443017 1.479566    Zn
H     0.0548516 0.121346 -0.145725     H
O      0.05982 0.7483916  0.66594     O
H     0.0666713 0.945302 -0.145581     H
C      0.06805  0.16827 -0.135885     C
C      0.06993 0.3160016  0.57845     C
O     0.0728018 0.3016713  0.40444     O
H     0.0753185 0.182108 0.0167761     H
O     0.0817216 0.3552211  0.00074     O
H     0.0857229  0.89107 -0.218097     H
H     0.0860322 0.634302 0.849714     H
C     0.0872716  0.73663  1.08835     C
C      0.10036  0.93205 -0.135885     C
O     0.1044711 0.7394718  0.26234     O
H     0.106941 0.924751 0.0167348     H
H     0.109031 0.194671 -0.218028     H
C     0.1112216  0.78823  0.75245     C
O      0.11163  0.45783  0.72175     O
H      0.11428 0.127214  1.44641     H
H     0.118323 0.419328 0.483692     H
C      0.11963 0.3270616  0.71545     C
H     0.121342 0.0666388  1.14567     H
C      0.12163 0.3436916  0.91435     C
H     0.122161 0.562413 0.562866     H
O      0.12453 0.6796216  0.61165     O
C     0.1258916  0.78633  0.95135     C
H     0.127241  1.01293 -0.44629     H
C      0.12766  0.66634  0.77999     C
C      0.12796  0.46096  0.55349     C
H     0.131738 0.481048 0.156579     H
H     0.143467 0.837647 0.487158     H
H     0.146293 0.958701 -0.518806     H
H     0.147748 0.682671  1.17672     H
C     0.1532916  0.83553  0.64085     C
N      0.15593  0.50923  0.44767     N
H     0.156008  0.62152  1.10182     H
N      0.15753  0.98002 -0.21903     N
C      0.15867  0.99715 -0.425287     C
C      0.16148  0.15867 1.425313     C
H      0.16244 0.305965 0.487092     H
C      0.16453 0.3178316  0.64085     C
C      0.16517  0.56646 0.530815     C
C      0.16827  0.10036 1.135915     C
C      0.16883 0.3488416  1.02595     C
H     0.170777 0.203309  1.46314     H
H     0.170896 0.360703   1.1797     H
C      0.17197  0.50819 0.241413     C
C      0.17487  0.66955 1.091913     C
N      0.17593  0.68662  0.88577     N
N      0.17743  0.15753  1.21917     N
C     0.1800416  0.83123  1.02595     C
H     0.182128 0.106959 0.983273     H
H     0.187593  0.14633  1.51878     H
H     0.188971 0.602128 0.425302     H
H     0.189833  0.82916  1.17971     H
H      0.19112 0.576597 0.664945     H
H     0.194654 0.0857551  1.21804     H
H     0.194855 0.553393 0.183769     H
H     0.201166  0.48936 0.231529     H
H     0.203318  1.03247 -0.463123     H
C      0.20546  0.20586  1.11339     C
C      0.20586  1.00034 -0.11321     C
C     0.2074416  0.88043  0.71545     C
O      0.20883 0.9870416  0.05505     O
C      0.21183 0.3229816  0.75245     C
C      0.21373 0.3396116  0.95135     C
H     0.215074 0.247518  1.18294     H
H     0.220071 0.691842  1.14957     H
O      0.22183  0.20883  0.94505     O
C     0.2221116  0.87843  0.91435     C
H     0.224472 0.472181 0.884789     H
O     0.2288611 0.9271917  0.40444     O
H     0.229092 0.773607 0.770586     H
C      0.23316  0.73465 0.802515     C
H     0.243277 0.718855 0.668305     H
C     0.2460616  0.93013  0.57845     C
H     0.247525  1.03233 -0.18286     H
O     0.2516016 0.3114516  0.66604     O
H     0.258125 0.484548 0.649937     H
O     0.2605218 0.3650013  0.26234     O
C      0.26343 0.3506716  1.08835     C
C      0.26545  0.49847 0.802515     C
H     0.268852 0.746519 0.907931     H
O     0.2734911 0.9182716  0.00074     O
H     0.278747 0.545424 0.812064     H
Zn    0.28008018 -0.017756 0.187116    Zn
Zn    0.28008018 0.982244 0.187116    Zn
Zn    0.28008018 0.982244 1.187116    Zn
Zn    0.28008118 -0.01776383 0.187106    Zn
Zn    0.28008118 -0.017756 0.187106    Zn
Zn    0.28008118 0.98223617 0.187106    Zn
Zn    0.28008118 0.98223617 1.187106    Zn
Zn    0.28008118 0.982244 0.187106    Zn
Zn    0.28008118 0.982244 1.187106    Zn
Zn    0.280083 -0.01776383 0.187106    Zn
Zn    0.280083 0.98223617 0.187106    Zn
Zn    0.280083 0.98223617 1.187106    Zn
Zn    0.280084 -0.01776283 0.187116    Zn
Zn    0.280084 0.98223717 0.187116    Zn
Zn    0.280084 0.98223717 1.187116    Zn
H     0.288215 0.799046 0.231458     H
H     0.292094 0.479251  1.18546     H
O     0.2940611 -0.0271383  0.64344     O
Zn    0.297843 0.28008018 -0.187104    Zn
Zn    0.297843 0.28008018 0.812896    Zn
Zn    0.297843 0.28008118 -0.187094    Zn
Zn    0.297843 0.28008118 0.812906    Zn
Zn    0.297843 0.280083 -0.187094    Zn
Zn    0.297843 0.280083 0.812906    Zn
Zn    0.297843 0.280084 -0.187104    Zn
Zn    0.297843 0.280084 0.812896    Zn
Zn    0.297853 0.28008118 -0.187094    Zn
Zn    0.297853 0.28008118 0.812906    Zn
H      0.30109 0.881873 0.483754     H
O     0.3016713 0.2288611  0.59564     O
H      0.30597 0.143498 0.513005     H
O     0.3061916 0.3454712  0.02334     O
O     0.3114411  0.05982  0.33414     O
N      0.31342  0.48923  0.88577     N
Zn    0.31556917 0.368823 0.479576    Zn
Zn    0.31556917 0.368823 1.479576    Zn
Zn    0.31557017 0.368823 0.479566    Zn
Zn    0.31557017 0.368823 1.479566    Zn
Zn    0.315574 0.368823 0.479566    Zn
Zn    0.315574 0.368823 0.479576    Zn
Zn    0.315574 0.368823 1.479566    Zn
Zn    0.315574 0.368823 1.479576    Zn
C     0.3160016 0.2460616  0.42165     C
C     0.3178316 0.1532916  0.35925     C
O     0.3203816  0.44493  0.61165     O
O     0.3212012 0.2940611  0.35664     O
C     0.3229816 0.1112216  0.24765     C
C     0.3270616 0.2074416  0.28465     C
C      0.33055  0.50527 1.091913     C
C      0.33304  0.87216  0.55349     C
C      0.33374  0.46126  0.77999     C
C      0.33625  0.82817 0.241413     C
C     0.3396116 0.1258916  0.04875     C
C     0.3436916 0.2221116  0.08575     C
O     0.3454712 0.0392711 -0.02326     O
O     0.3462916  0.88843  0.72175     O
H     0.346369 0.552495  1.11274     H
C     0.3488416 0.1800416 -0.02585     C
H     0.349419  0.86844 0.156704     H
C     0.3506716 0.0872716 -0.08825     C
Zn    0.35109717 -0.035487 -0.146224    Zn
Zn    0.35109717 0.964513 -0.146224    Zn
Zn    0.35109717 0.964513 0.853776    Zn
Zn    0.351104 -0.035487 -0.146224    Zn
Zn    0.351104 0.964513 -0.146224    Zn
Zn    0.351104 0.964513 0.853776    Zn
N      0.35332  0.84413  0.44767     N
O      0.35522 0.2734911 -0.00066     O
H     0.358504 0.805232 0.183683     H
O     0.3604716 -0.01208  0.31014     O
H     0.360703 0.189836 -0.179605     H
O     0.3649913  0.10453 -0.26216     O
H     0.365785 0.451648 0.849541     H
H     0.365846 0.495917  1.12987     H
Zn    0.368823 0.05325218 -0.479564    Zn
Zn    0.368823 0.05325218 0.520436    Zn
Zn    0.368823 0.053253 -0.479554    Zn
Zn    0.368823 0.053253 0.520446    Zn
Zn    0.368823 0.05325318 -0.479554    Zn
Zn    0.368823 0.05325318 0.520446    Zn
Zn    0.368823 0.053254 -0.479554    Zn
Zn    0.368823 0.053254 0.520446    Zn
Zn    0.368823 1.05325218 0.520436    Zn
Zn    0.368823 1.053253 0.520446    Zn
Zn    0.368823 1.05325318 0.520446    Zn
Zn    0.368823 1.053254 0.520446    Zn
O     0.3726011 0.3604717  0.69004     O
H     0.385593 0.809094 0.665104     H
Zn    0.38658618 0.35109717 0.146236    Zn
Zn    0.38658618 0.35109717 1.146236    Zn
Zn    0.38658618 0.351104 0.146236    Zn
Zn    0.38658618 0.351104 1.146236    Zn
Zn    0.386593 0.35109717 0.146236    Zn
Zn    0.386593 0.35109717 1.146236    Zn
Zn    0.386594 0.35109717 0.146236    Zn
Zn    0.386594 0.35109717 1.146236    Zn
O     0.3931711 0.4150616  0.33274     O
H     0.399971 0.612002 0.521119     H
C      0.40135  0.83497 0.530815     C
C      0.40333 0.9826616  0.24505     C
O     0.4061417  0.96833  0.07114     O
H       0.4132 0.811124 0.425428     H
O     0.4150616 0.0218811  0.66734     O
H     0.419023  0.55777 0.448603     H
H     0.419329 0.301027 0.516454     H
C     0.4206016  0.40333  0.75505     C
C      0.43366  0.59875 0.530815     C
O     0.4378011 0.4061418 -0.07096     O
H     0.440241 0.591451 0.683435     H
H     0.440309 0.878007  0.56259     H
C     0.4445516  0.45493  0.41915     C
O      0.44493  0.12453  0.38845     O
H     0.447681  0.79381  1.11301     H
H     0.451623 0.0860276 0.150392     H
C      0.45293 0.9937216  0.38205     C
H     0.454743 0.733217 0.812279     H
C      0.45493 1.0103516  0.58095     C
H     0.455461 0.229113 0.229566     H
O      0.45783 0.3462916  0.27835     O
C     0.4592216  0.45293  0.61805     C
H     0.460541 0.679632  0.22041     H
C      0.46096  0.33304  0.44669     C
C      0.46126  0.12766  0.22019     C
H     0.465038 0.147748 -0.176721     H
H      0.47683   0.5042 0.153794     H
H     0.479593 0.625401 0.147894     H
H     0.481028  0.34938  0.84338     H
C     0.4866216  0.50213  0.30755     C
N      0.48923  0.17593  0.11437     N
H     0.489278 0.288219 0.768524     H
N      0.49083  0.64672  0.44767     N
C      0.49197  0.66385 0.241413     C
C      0.49488  0.82527 1.091913     C
H     0.495882 0.972635 0.153697     H
C      0.49793 0.9844916  0.30745     C
C      0.49847  0.23316 0.197515     C
C      0.50167  0.76694 0.802515     C
C      0.50213 1.0155016  0.69255     C
H     0.504172 0.869908  1.12973     H
H     0.504196  1.02736 0.846305     H
C      0.50527  0.17489 -0.091887     C
C      0.50815  0.33625 0.758613     C
N      0.50923  0.35332  0.55247     N
N      0.51083  0.82413  0.88577     N
C     0.5133716  0.49793  0.69265     C
H     0.515526 0.773534 0.649871     H
H     0.520996 0.812934  1.18538     H
H     0.522271 0.268828 0.0920022     H
H     0.523142 0.495919 0.846465     H
H      0.52442 0.243297 0.331645     H
H     0.528057 0.752341 0.884648     H
H     0.528155 0.220093 -0.149531     H
H     0.534466  0.15606 -0.101771     H
H     0.536618 0.699171 0.203577     H
C      0.53886  0.87246  0.77999     C
C      0.53916  0.66704  0.55349     C
C     0.5407716  0.54703  0.38215     C
O      0.54223 0.6537116  0.72175     O
C      0.54513 0.9896416  0.41905     C
C      0.54703 1.0062716  0.61795     C
H      0.54858  0.91411 0.849848     H
H     0.553346 0.358533 0.816312     H
O      0.55513  0.87553  0.61165     O
C     0.5554416  0.54513  0.58105     C
O     0.5621911 0.5938617  0.07114     O
H     0.562392 0.440307 0.437286     H
C      0.56646  0.40135 0.469215     C
H     0.576577 0.385555 0.335005     H
C     0.5793916  0.59673  0.24515     C
H     0.580793 0.699097 0.483838     H
C      0.59673 1.0173316  0.75495     C
H     0.602152 0.413219 0.574631     H
O      0.60682 0.5849416  0.66744     O
Zn    0.613413 0.64890317 -0.146224    Zn
Zn    0.613413 0.64890317 0.853776    Zn
Zn    0.613414 0.64890317 -0.146224    Zn
Zn    0.613414 0.64890317 0.853776    Zn
Zn    0.61341418 0.64890317 -0.146224    Zn
Zn    0.61341418 0.64890317 0.853776    Zn
Zn    0.61341418 0.648904 -0.146224    Zn
Zn    0.61341418 0.648904 0.853776    Zn
H     0.621514  0.46576 -0.101847     H
O     0.6273911 0.6395317  0.31014     O
Zn    0.631183 0.94674718 0.479566    Zn
Zn    0.631183 0.94674718 1.479566    Zn
Zn    0.631183 0.94674818 0.479576    Zn
Zn    0.631183 0.94674818 1.479576    Zn
Zn    0.631183 0.946754 0.479566    Zn
Zn    0.631183 0.946754 1.479566    Zn
H      0.63438 0.548569 0.150506     H
O     0.6350013 0.8955311  0.26234     O
H       0.6393 0.810168  1.17971     H
O     0.6447811 0.7265111  0.00074     O
Zn    0.64890317 1.035493 0.146236    Zn
Zn    0.64890317 1.035493 1.146236    Zn
Zn    0.648904 1.035493 0.146236    Zn
Zn    0.648904 1.035493 1.146236    Zn
C     0.6493316 0.9127316  1.08835     C
C     0.6511616 0.8199616  1.02595     C
C     0.6563116 0.7778916  0.91435     C
C     0.6603916 0.8741116  0.95135     C
C      0.66634  0.53886  0.22019     C
C      0.66955  0.49488 -0.091887     C
C     0.6729416 0.7925616  0.71545     C
C     0.6770216 0.8887816  0.75245     C
O     0.6788012  0.70592  0.64344     O
O     0.6796216  0.55513  0.38845     O
C     0.6821716 0.8467116  0.64085     C
H     0.682723 0.535155 -0.176576     H
C     0.6840016 0.7539416  0.57845     C
Zn    0.68443017 0.631183 -0.479554    Zn
Zn    0.68443017 0.631183 0.520446    Zn
Zn    0.68443117 0.631183 -0.479564    Zn
Zn    0.68443117 0.631183 0.520436    Zn
Zn    0.684434 0.631183 -0.479564    Zn
Zn    0.684434 0.631183 -0.479554    Zn
Zn    0.684434 0.631183 0.520436    Zn
Zn    0.684434 0.631183 0.520446    Zn
N      0.68662  0.51083  0.11437     N
H       0.6918  0.47194 -0.149636     H
O     0.6938017 0.6545312 -0.02326     O
H     0.694033 0.856506 0.487095     H
O      0.69833 0.7711411  0.40444     O
Zn    0.702153 0.71991918 0.187106    Zn
Zn    0.702153 0.71991918 1.187106    Zn
Zn    0.702163 0.71991918 0.187106    Zn
Zn    0.702163 0.71991918 1.187106    Zn
Zn    0.702163 0.71992018 0.187116    Zn
Zn    0.702163 0.71992018 1.187116    Zn
Zn    0.702163 0.719924 0.187106    Zn
Zn    0.702163 0.719924 0.187116    Zn
Zn    0.702163 0.719924 1.187106    Zn
Zn    0.702163 0.719924 1.187116    Zn
H     0.718893 0.475794 0.331804     H
Zn    0.71991918 1.017764 0.812906    Zn
Zn    0.71991918 1.01776417 0.812906    Zn
Zn    0.71992018 1.017764 0.812896    Zn
Zn    0.719923 1.01776417 0.812906    Zn
Zn    0.719924 1.01776317 0.812896    Zn
C      0.73465  0.50167 0.197515     C
C      0.73663 0.6493316 -0.08825     C
O     0.7394717 0.6350113 -0.26216     O
H       0.7465 0.477824 0.0921281     H
O     0.7483916  0.68852  0.33414     O
H     0.773609 0.544707  0.22929     H
O      0.77823  0.79123  0.05505     O
H     0.780967 0.460543 0.779692     H
H     0.785124 0.752617 -0.182694     H
C      0.78633 0.6603916  0.04875     C
H      0.78804 0.399942 0.478929     H
C      0.78823 0.6770216  0.24765     C
H     0.788861 0.895695 -0.103835     H
C      0.79466  0.79426 -0.11321     C
H     0.798438 0.814356 -0.510129     H
N      0.82263  0.84252 -0.21903     N
C      0.82817  0.49199 0.758613     C
H     0.829164   0.6393 -0.179605     H
C      0.83123 0.6511616 -0.02585     C
C      0.83187  0.89974 -0.135885     C
C      0.83497  0.43366 0.469215     C
C      0.83553 0.6821716  0.35925     C
H     0.837475 0.536635 0.796384     H
H      0.83762 0.694038 0.513008     H
C      0.83867  0.84149 -0.425287     C
N      0.84413  0.49083  0.55247     N
H      0.84884 0.440262 0.316585     H
H     0.854272 0.479649 0.852129     H
H     0.855673  0.93541 -0.24139     H
H     0.857819 0.909873 -0.00175309     H
H     0.861344 0.419048 0.551366     H
H     0.861558 0.886696 -0.482904     H
H     0.867863 0.822657 -0.435194     H
C      0.87216  0.53916  0.44669     C
C      0.87843 0.6563116  0.08575     C
C      0.88043 0.6729416  0.28465     C
H      0.88188  0.58081 0.516548     H
O      0.88843  0.54223  0.27835     O
H     0.893094 0.788862  1.10381     H
O     0.9182716 0.6447811 -0.00066     O
H     0.920163 0.855666  1.24138     H
O     0.9271917  0.69833  0.59564     O
C      0.93013 0.6840016  0.42165     C
C      0.93205  0.83187 1.135915     C
H     0.947887 0.857825   1.0018     H
Zn    0.964513 0.613413 0.146236    Zn
Zn    0.964513 0.613414 0.146236    Zn
Zn    0.964513 0.61341418 0.146236    Zn
H     0.974836 0.861557  1.48307     H
N      0.98002  0.82263  1.21917     N
Zn    0.98223617 0.702153 -0.187094    Zn
Zn    0.98223617 0.702153 0.812906    Zn
Zn    0.98223617 0.702163 -0.187094    Zn
Zn    0.98223617 0.702163 0.812906    Zn
Zn    0.98223717 0.702163 -0.187104    Zn
Zn    0.98223717 0.702163 0.812896    Zn
Zn    0.982244 0.702163 -0.187104    Zn
Zn    0.982244 0.702163 -0.187094    Zn
Zn    0.982244 0.702163 0.812896    Zn
Zn    0.982244 0.702163 0.812906    Zn
H     0.984095 0.798456  1.51015     H
O     0.9870416  0.77823  0.94505     O
C      0.99715  0.83868 1.425313     C
C      1.00034  0.79466  1.11339     C
H      1.03241 0.785115  1.18309     H
H      1.04518 0.867888  1.43506     H
Zn    1.05325218 0.68443117 0.479576    Zn
Zn    1.05325218 0.684434 0.479576    Zn
Zn    1.053253 0.68443017 0.479566    Zn
Zn    1.05325318 0.684434 0.479566    Zn
Zn    1.053254 0.68443017 0.479566    Zn
