data_I
_chemical_name_common  '/home/zhangsd/repos/MofS-CGCNN/ML/data/WS24/clean_cifs/ZODXIB'
_cell_length_a 40.88100
_cell_length_b 40.88100
_cell_length_c 40.88100
_cell_angle_alpha 90.00000
_cell_angle_beta  90.00000
_cell_angle_gamma 90.00000
_space_group_name_H-M_alt      'P 1'


loop_
_space_group_symop_operation_xyz
  'x, y, z' 

loop_
_atom_site_label
_atom_site_fract_x
_atom_site_fract_y
_atom_site_fract_z
_atom_site_type_symbol
O          0.0      0.0   0.0877     O
Cr         0.0      0.0   0.1375    Cr
O          0.0      0.0   0.1868     O
O          0.0      0.0   0.8132     O
Cr         0.0      0.0   0.8625    Cr
O          0.0      0.0   0.9123     O
H          0.0   0.0194   0.0809     H
H          0.0   0.0194   0.9191     H
O          0.0    0.037   0.2496     O
O          0.0    0.037   0.7504     O
O          0.0  0.04806   0.1349     O
O          0.0  0.04806   0.8651     O
O          0.0  0.06332  0.18734     O
O          0.0  0.06332  0.81266     O
C          0.0  0.07021  0.15688     C
C          0.0  0.07021  0.84312     C
H          0.0   0.0809   0.0194     H
H          0.0   0.0809   0.9806     H
O          0.0   0.0877      0.0     O
H          0.0   0.0982   0.0982     H
H          0.0   0.0982   0.9018     H
C          0.0  0.10586  0.14747     C
C          0.0  0.10586  0.85253     C
C          0.0  0.11463  0.11463     C
C          0.0  0.11463  0.88537     C
H          0.0   0.1239    0.194     H
H          0.0   0.1239    0.806     H
C          0.0  0.12989  0.17153     C
C          0.0  0.12989  0.82847     C
O          0.0   0.1349  0.04806     O
O          0.0   0.1349  0.95194     O
Cr         0.0   0.1375      0.0    Cr
C          0.0  0.14747  0.10586     C
C          0.0  0.14747  0.89414     C
C          0.0  0.15688  0.07021     C
C          0.0  0.15688  0.92979     C
C          0.0  0.16274  0.16274     C
C          0.0  0.16274  0.83726     C
C          0.0  0.17153  0.12989     C
C          0.0  0.17153  0.87011     C
O          0.0   0.1868      0.0     O
O          0.0  0.18734  0.06332     O
O          0.0  0.18734  0.93668     O
C          0.0  0.18867  0.18867     C
C          0.0  0.18867  0.81133     C
H          0.0    0.194   0.1239     H
H          0.0    0.194   0.8761     H
C          0.0  0.23676  0.23676     C
C          0.0  0.23676  0.76324     C
O          0.0   0.2496    0.037     O
O          0.0   0.2496    0.963     O
O          0.0   0.2504    0.463     O
O          0.0   0.2504    0.537     O
C          0.0  0.26324  0.26324     C
C          0.0  0.26324  0.73676     C
H          0.0    0.306   0.3761     H
H          0.0    0.306   0.6239     H
C          0.0  0.31133  0.31133     C
C          0.0  0.31133  0.68867     C
O          0.0  0.31266  0.43668     O
O          0.0  0.31266  0.56332     O
O          0.0   0.3132      0.5     O
C          0.0  0.32847  0.37011     C
C          0.0  0.32847  0.62989     C
C          0.0  0.33726  0.33726     C
C          0.0  0.33726  0.66274     C
C          0.0  0.34312  0.42979     C
C          0.0  0.34312  0.57021     C
C          0.0  0.35253  0.39414     C
C          0.0  0.35253  0.60586     C
Cr         0.0   0.3625      0.5    Cr
O          0.0   0.3651  0.45194     O
O          0.0   0.3651  0.54806     O
C          0.0  0.37011  0.32847     C
C          0.0  0.37011  0.67153     C
H          0.0   0.3761    0.306     H
H          0.0   0.3761    0.694     H
C          0.0  0.38537  0.38537     C
C          0.0  0.38537  0.61463     C
C          0.0  0.39414  0.35253     C
C          0.0  0.39414  0.64747     C
H          0.0   0.4018   0.4018     H
H          0.0   0.4018   0.5982     H
O          0.0   0.4123      0.5     O
H          0.0   0.4191   0.4806     H
H          0.0   0.4191   0.5194     H
C          0.0  0.42979  0.34312     C
C          0.0  0.42979  0.65688     C
O          0.0  0.43668  0.31266     O
O          0.0  0.43668  0.68734     O
O          0.0  0.45194   0.3651     O
O          0.0  0.45194   0.6349     O
O          0.0    0.463   0.2504     O
O          0.0    0.463   0.7496     O
H          0.0   0.4806   0.4191     H
H          0.0   0.4806   0.5809     H
O          0.0      0.5   0.3132     O
Cr         0.0      0.5   0.3625    Cr
O          0.0      0.5   0.4123     O
O          0.0      0.5   0.5877     O
Cr         0.0      0.5   0.6375    Cr
O          0.0      0.5   0.6868     O
H          0.0   0.5194   0.4191     H
H          0.0   0.5194   0.5809     H
O          0.0    0.537   0.2504     O
O          0.0    0.537   0.7496     O
O          0.0  0.54806   0.3651     O
O          0.0  0.54806   0.6349     O
O          0.0  0.56332  0.31266     O
O          0.0  0.56332  0.68734     O
C          0.0  0.57021  0.34312     C
C          0.0  0.57021  0.65688     C
H          0.0   0.5809   0.4806     H
H          0.0   0.5809   0.5194     H
O          0.0   0.5877      0.5     O
H          0.0   0.5982   0.4018     H
H          0.0   0.5982   0.5982     H
C          0.0  0.60586  0.35253     C
C          0.0  0.60586  0.64747     C
C          0.0  0.61463  0.38537     C
C          0.0  0.61463  0.61463     C
H          0.0   0.6239    0.306     H
H          0.0   0.6239    0.694     H
C          0.0  0.62989  0.32847     C
C          0.0  0.62989  0.67153     C
O          0.0   0.6349  0.45194     O
O          0.0   0.6349  0.54806     O
Cr         0.0   0.6375      0.5    Cr
C          0.0  0.64747  0.39414     C
C          0.0  0.64747  0.60586     C
C          0.0  0.65688  0.42979     C
C          0.0  0.65688  0.57021     C
C          0.0  0.66274  0.33726     C
C          0.0  0.66274  0.66274     C
C          0.0  0.67153  0.37011     C
C          0.0  0.67153  0.62989     C
O          0.0   0.6868      0.5     O
O          0.0  0.68734  0.43668     O
O          0.0  0.68734  0.56332     O
C          0.0  0.68867  0.31133     C
C          0.0  0.68867  0.68867     C
H          0.0    0.694   0.3761     H
H          0.0    0.694   0.6239     H
C          0.0  0.73676  0.26324     C
C          0.0  0.73676  0.73676     C
O          0.0   0.7496    0.463     O
O          0.0   0.7496    0.537     O
O          0.0   0.7504    0.037     O
O          0.0   0.7504    0.963     O
C          0.0  0.76324  0.23676     C
C          0.0  0.76324  0.76324     C
H          0.0    0.806   0.1239     H
H          0.0    0.806   0.8761     H
C          0.0  0.81133  0.18867     C
C          0.0  0.81133  0.81133     C
O          0.0  0.81266  0.06332     O
O          0.0  0.81266  0.93668     O
O          0.0   0.8132      0.0     O
C          0.0  0.82847  0.12989     C
C          0.0  0.82847  0.87011     C
C          0.0  0.83726  0.16274     C
C          0.0  0.83726  0.83726     C
C          0.0  0.84312  0.07021     C
C          0.0  0.84312  0.92979     C
C          0.0  0.85253  0.10586     C
C          0.0  0.85253  0.89414     C
Cr         0.0   0.8625      0.0    Cr
O          0.0   0.8651  0.04806     O
O          0.0   0.8651  0.95194     O
C          0.0  0.87011  0.17153     C
C          0.0  0.87011  0.82847     C
H          0.0   0.8761    0.194     H
H          0.0   0.8761    0.806     H
C          0.0  0.88537  0.11463     C
C          0.0  0.88537  0.88537     C
C          0.0  0.89414  0.14747     C
C          0.0  0.89414  0.85253     C
H          0.0   0.9018   0.0982     H
H          0.0   0.9018   0.9018     H
O          0.0   0.9123      0.0     O
H          0.0   0.9191   0.0194     H
H          0.0   0.9191   0.9806     H
C          0.0  0.92979  0.15688     C
C          0.0  0.92979  0.84312     C
O          0.0  0.93668  0.18734     O
O          0.0  0.93668  0.81266     O
O          0.0  0.95194   0.1349     O
O          0.0  0.95194   0.8651     O
O          0.0    0.963   0.2496     O
O          0.0    0.963   0.7504     O
H          0.0   0.9806   0.0809     H
H          0.0   0.9806   0.9191     H
H       0.0157   0.0235   0.2519     H
H       0.0157   0.0235   0.7481     H
H       0.0157   0.2481   0.4765     H
H       0.0157   0.2481   0.5235     H
H       0.0157   0.2519   0.0235     H
H       0.0157   0.2519   0.9765     H
H       0.0157   0.4765   0.2481     H
H       0.0157   0.4765   0.7519     H
H       0.0157   0.5235   0.2481     H
H       0.0157   0.5235   0.7519     H
H       0.0157   0.7481   0.0235     H
H       0.0157   0.7481   0.9765     H
H       0.0157   0.7519   0.4765     H
H       0.0157   0.7519   0.5235     H
H       0.0157   0.9765   0.2519     H
H       0.0157   0.9765   0.7481     H
H       0.0194      0.0   0.0809     H
H       0.0194      0.0   0.9191     H
H       0.0194   0.0809      0.0     H
H       0.0194   0.4191      0.5     H
H       0.0194      0.5   0.4191     H
H       0.0194      0.5   0.5809     H
H       0.0194   0.5809      0.5     H
H       0.0194   0.9191      0.0     H
H       0.0235   0.0157   0.2519     H
H       0.0235   0.0157   0.7481     H
H       0.0235   0.2481   0.4843     H
H       0.0235   0.2481   0.5157     H
H       0.0235   0.2519   0.0157     H
H       0.0235   0.2519   0.9843     H
H       0.0235   0.4843   0.2481     H
H       0.0235   0.4843   0.7519     H
H       0.0235   0.5157   0.2481     H
H       0.0235   0.5157   0.7519     H
H       0.0235   0.7481   0.0157     H
H       0.0235   0.7481   0.9843     H
H       0.0235   0.7519   0.4843     H
H       0.0235   0.7519   0.5157     H
H       0.0235   0.9843   0.2519     H
H       0.0235   0.9843   0.7481     H
Cr     0.02456  0.02456    0.214    Cr
Cr     0.02456  0.02456    0.786    Cr
Cr     0.02456    0.214  0.02456    Cr
Cr     0.02456    0.214  0.97544    Cr
Cr     0.02456    0.286  0.47544    Cr
Cr     0.02456    0.286  0.52456    Cr
Cr     0.02456  0.47544    0.286    Cr
Cr     0.02456  0.47544    0.714    Cr
Cr     0.02456  0.52456    0.286    Cr
Cr     0.02456  0.52456    0.714    Cr
Cr     0.02456    0.714  0.47544    Cr
Cr     0.02456    0.714  0.52456    Cr
Cr     0.02456    0.786  0.02456    Cr
Cr     0.02456    0.786  0.97544    Cr
Cr     0.02456  0.97544    0.214    Cr
Cr     0.02456  0.97544    0.786    Cr
C      0.02945  0.20069  0.20069     C
C      0.02945  0.20069  0.79931     C
C      0.02945  0.22474  0.22474     C
C      0.02945  0.22474  0.77526     C
C      0.02945  0.27526  0.27526     C
C      0.02945  0.27526  0.72474     C
C      0.02945  0.29931  0.29931     C
C      0.02945  0.29931  0.70069     C
C      0.02945  0.70069  0.29931     C
C      0.02945  0.70069  0.70069     C
C      0.02945  0.72474  0.27526     C
C      0.02945  0.72474  0.72474     C
C      0.02945  0.77526  0.22474     C
C      0.02945  0.77526  0.77526     C
C      0.02945  0.79931  0.20069     C
C      0.02945  0.79931  0.79931     C
O        0.037      0.0   0.2496     O
O        0.037      0.0   0.7504     O
O        0.037   0.2496      0.0     O
O        0.037   0.2504      0.5     O
O        0.037      0.5   0.2504     O
O        0.037      0.5   0.7496     O
O        0.037   0.7496      0.5     O
O        0.037   0.7504      0.0     O
O      0.04806      0.0   0.1349     O
O      0.04806      0.0   0.8651     O
O      0.04806   0.1349      0.0     O
O      0.04806   0.3651      0.5     O
O      0.04806      0.5   0.3651     O
O      0.04806      0.5   0.6349     O
O      0.04806   0.6349      0.5     O
O      0.04806   0.8651      0.0     O
H       0.0496    0.233    0.233     H
H       0.0496    0.233    0.767     H
H       0.0496    0.267    0.267     H
H       0.0496    0.267    0.733     H
H       0.0496    0.733    0.267     H
H       0.0496    0.733    0.733     H
H       0.0496    0.767    0.233     H
H       0.0496    0.767    0.767     H
H       0.0567    0.171   0.1713     H
H       0.0567    0.171   0.8287     H
H       0.0567   0.3287    0.329     H
H       0.0567   0.3287    0.671     H
H       0.0567    0.671   0.3287     H
H       0.0567    0.671   0.6713     H
H       0.0567   0.8287    0.171     H
H       0.0567   0.8287    0.829     H
O       0.0592   0.0592   0.2446     O
O       0.0592   0.0592   0.7554     O
O       0.0592   0.2446   0.0592     O
O       0.0592   0.2446   0.9408     O
O       0.0592   0.2554   0.4408     O
O       0.0592   0.2554   0.5592     O
O       0.0592   0.4408   0.2554     O
O       0.0592   0.4408   0.7446     O
O       0.0592   0.5592   0.2554     O
O       0.0592   0.5592   0.7446     O
O       0.0592   0.7446   0.4408     O
O       0.0592   0.7446   0.5592     O
O       0.0592   0.7554   0.0592     O
O       0.0592   0.7554   0.9408     O
O       0.0592   0.9408   0.2446     O
O       0.0592   0.9408   0.7554     O
C      0.06112  0.18732  0.18732     C
C      0.06112  0.18732  0.81268     C
C      0.06112  0.31268  0.31268     C
C      0.06112  0.31268  0.68732     C
C      0.06112  0.68732  0.31268     C
C      0.06112  0.68732  0.68732     C
C      0.06112  0.81268  0.18732     C
C      0.06112  0.81268  0.81268     C
O      0.06332      0.0  0.18734     O
O      0.06332      0.0  0.81266     O
O      0.06332  0.18734      0.0     O
O      0.06332  0.31266      0.5     O
O      0.06332      0.5  0.31266     O
O      0.06332      0.5  0.68734     O
O      0.06332  0.68734      0.5     O
O      0.06332  0.81266      0.0     O
C      0.07021      0.0  0.15688     C
C      0.07021      0.0  0.84312     C
C      0.07021  0.15688      0.0     C
C      0.07021  0.34312      0.5     C
C      0.07021      0.5  0.34312     C
C      0.07021      0.5  0.65688     C
C      0.07021  0.65688      0.5     C
C      0.07021  0.84312      0.0     C
H       0.0703    0.071   0.2314     H
H       0.0703    0.071   0.7686     H
H       0.0703   0.2314    0.071     H
H       0.0703   0.2314    0.929     H
H       0.0703   0.2686    0.429     H
H       0.0703   0.2686    0.571     H
H       0.0703    0.429   0.2686     H
H       0.0703    0.429   0.7314     H
H       0.0703    0.571   0.2686     H
H       0.0703    0.571   0.7314     H
H       0.0703   0.7314    0.429     H
H       0.0703   0.7314    0.571     H
H       0.0703   0.7686    0.071     H
H       0.0703   0.7686    0.929     H
H       0.0703    0.929   0.2314     H
H       0.0703    0.929   0.7686     H
H       0.0735   0.1775   0.2049     H
H       0.0735   0.1775   0.7951     H
H       0.0735   0.2049   0.1775     H
H       0.0735   0.2049   0.8225     H
H       0.0735   0.2951   0.3225     H
H       0.0735   0.2951   0.6775     H
H       0.0735   0.3225   0.2951     H
H       0.0735   0.3225   0.7049     H
H       0.0735   0.6775   0.2951     H
H       0.0735   0.6775   0.7049     H
H       0.0735   0.7049   0.3225     H
H       0.0735   0.7049   0.6775     H
H       0.0735   0.7951   0.1775     H
H       0.0735   0.7951   0.8225     H
H       0.0735   0.8225   0.2049     H
H       0.0735   0.8225   0.7951     H
H       0.0809      0.0   0.0194     H
H       0.0809      0.0   0.9806     H
H       0.0809   0.0194      0.0     H
H       0.0809   0.4806      0.5     H
H       0.0809      0.5   0.4806     H
H       0.0809      0.5   0.5194     H
H       0.0809   0.5194      0.5     H
H       0.0809   0.9806      0.0     H
O       0.0877      0.0      0.0     O
O       0.0877      0.5      0.5     O
H       0.0982      0.0   0.0982     H
H       0.0982      0.0   0.9018     H
H       0.0982   0.0982      0.0     H
H       0.0982   0.4018      0.5     H
H       0.0982      0.5   0.4018     H
H       0.0982      0.5   0.5982     H
H       0.0982   0.5982      0.5     H
H       0.0982   0.9018      0.0     H
C      0.10586      0.0  0.14747     C
C      0.10586      0.0  0.85253     C
C      0.10586  0.14747      0.0     C
C      0.10586  0.35253      0.5     C
C      0.10586      0.5  0.35253     C
C      0.10586      0.5  0.64747     C
C      0.10586  0.64747      0.5     C
C      0.10586  0.85253      0.0     C
C      0.11463      0.0  0.11463     C
C      0.11463      0.0  0.88537     C
C      0.11463  0.11463      0.0     C
C      0.11463  0.38537      0.5     C
C      0.11463      0.5  0.38537     C
C      0.11463      0.5  0.61463     C
C      0.11463  0.61463      0.5     C
C      0.11463  0.88537      0.0     C
H       0.1239      0.0    0.194     H
H       0.1239      0.0    0.806     H
H       0.1239    0.194      0.0     H
H       0.1239    0.306      0.5     H
H       0.1239      0.5    0.306     H
H       0.1239      0.5    0.694     H
H       0.1239    0.694      0.5     H
H       0.1239    0.806      0.0     H
C      0.12989      0.0  0.17153     C
C      0.12989      0.0  0.82847     C
C      0.12989  0.17153      0.0     C
C      0.12989  0.32847      0.5     C
C      0.12989      0.5  0.32847     C
C      0.12989      0.5  0.67153     C
C      0.12989  0.67153      0.5     C
C      0.12989  0.82847      0.0     C
O       0.1349      0.0  0.04806     O
O       0.1349      0.0  0.95194     O
O       0.1349  0.04806      0.0     O
O       0.1349  0.45194      0.5     O
O       0.1349      0.5  0.45194     O
O       0.1349      0.5  0.54806     O
O       0.1349  0.54806      0.5     O
O       0.1349  0.95194      0.0     O
Cr      0.1375      0.0      0.0    Cr
Cr      0.1375      0.5      0.5    Cr
C      0.14747      0.0  0.10586     C
C      0.14747      0.0  0.89414     C
C      0.14747  0.10586      0.0     C
C      0.14747  0.39414      0.5     C
C      0.14747      0.5  0.39414     C
C      0.14747      0.5  0.60586     C
C      0.14747  0.60586      0.5     C
C      0.14747  0.89414      0.0     C
C      0.15688      0.0  0.07021     C
C      0.15688      0.0  0.92979     C
C      0.15688  0.07021      0.0     C
C      0.15688  0.42979      0.5     C
C      0.15688      0.5  0.42979     C
C      0.15688      0.5  0.57021     C
C      0.15688  0.57021      0.5     C
C      0.15688  0.92979      0.0     C
C      0.16274      0.0  0.16274     C
C      0.16274      0.0  0.83726     C
C      0.16274  0.16274      0.0     C
C      0.16274  0.33726      0.5     C
C      0.16274      0.5  0.33726     C
C      0.16274      0.5  0.66274     C
C      0.16274  0.66274      0.5     C
C      0.16274  0.83726      0.0     C
H        0.171   0.0567   0.1713     H
H        0.171   0.0567   0.8287     H
H        0.171   0.1713   0.0567     H
H        0.171   0.1713   0.9433     H
H        0.171   0.3287   0.4433     H
H        0.171   0.3287   0.5567     H
H        0.171   0.4433   0.3287     H
H        0.171   0.4433   0.6713     H
H        0.171   0.5567   0.3287     H
H        0.171   0.5567   0.6713     H
H        0.171   0.6713   0.4433     H
H        0.171   0.6713   0.5567     H
H        0.171   0.8287   0.0567     H
H        0.171   0.8287   0.9433     H
H        0.171   0.9433   0.1713     H
H        0.171   0.9433   0.8287     H
C      0.17153      0.0  0.12989     C
C      0.17153      0.0  0.87011     C
C      0.17153  0.12989      0.0     C
C      0.17153  0.37011      0.5     C
C      0.17153      0.5  0.37011     C
C      0.17153      0.5  0.62989     C
C      0.17153  0.62989      0.5     C
C      0.17153  0.87011      0.0     C
H       0.1775   0.0735   0.2049     H
H       0.1775   0.0735   0.7951     H
H       0.1775   0.2049   0.0735     H
H       0.1775   0.2049   0.9265     H
H       0.1775   0.2951   0.4265     H
H       0.1775   0.2951   0.5735     H
H       0.1775   0.4265   0.2951     H
H       0.1775   0.4265   0.7049     H
H       0.1775   0.5735   0.2951     H
H       0.1775   0.5735   0.7049     H
H       0.1775   0.7049   0.4265     H
H       0.1775   0.7049   0.5735     H
H       0.1775   0.7951   0.0735     H
H       0.1775   0.7951   0.9265     H
H       0.1775   0.9265   0.2049     H
H       0.1775   0.9265   0.7951     H
O       0.1868      0.0      0.0     O
O       0.1868      0.5      0.5     O
C      0.18732  0.06112  0.18732     C
C      0.18732  0.06112  0.81268     C
C      0.18732  0.18732  0.06112     C
C      0.18732  0.18732  0.93888     C
C      0.18732  0.31268  0.43888     C
C      0.18732  0.31268  0.56112     C
C      0.18732  0.43888  0.31268     C
C      0.18732  0.43888  0.68732     C
C      0.18732  0.56112  0.31268     C
C      0.18732  0.56112  0.68732     C
C      0.18732  0.68732  0.43888     C
C      0.18732  0.68732  0.56112     C
C      0.18732  0.81268  0.06112     C
C      0.18732  0.81268  0.93888     C
C      0.18732  0.93888  0.18732     C
C      0.18732  0.93888  0.81268     C
O      0.18734      0.0  0.06332     O
O      0.18734      0.0  0.93668     O
O      0.18734  0.06332      0.0     O
O      0.18734  0.43668      0.5     O
O      0.18734      0.5  0.43668     O
O      0.18734      0.5  0.56332     O
O      0.18734  0.56332      0.5     O
O      0.18734  0.93668      0.0     O
C      0.18867      0.0  0.18867     C
C      0.18867      0.0  0.81133     C
C      0.18867  0.18867      0.0     C
C      0.18867  0.31133      0.5     C
C      0.18867      0.5  0.31133     C
C      0.18867      0.5  0.68867     C
C      0.18867  0.68867      0.5     C
C      0.18867  0.81133      0.0     C
H        0.194      0.0   0.1239     H
H        0.194      0.0   0.8761     H
H        0.194   0.1239      0.0     H
H        0.194   0.3761      0.5     H
H        0.194      0.5   0.3761     H
H        0.194      0.5   0.6239     H
H        0.194   0.6239      0.5     H
H        0.194   0.8761      0.0     H
C      0.20069  0.02945  0.20069     C
C      0.20069  0.02945  0.79931     C
C      0.20069  0.20069  0.02945     C
C      0.20069  0.20069  0.97055     C
C      0.20069  0.29931  0.47055     C
C      0.20069  0.29931  0.52945     C
C      0.20069  0.47055  0.29931     C
C      0.20069  0.47055  0.70069     C
C      0.20069  0.52945  0.29931     C
C      0.20069  0.52945  0.70069     C
C      0.20069  0.70069  0.47055     C
C      0.20069  0.70069  0.52945     C
C      0.20069  0.79931  0.02945     C
C      0.20069  0.79931  0.97055     C
C      0.20069  0.97055  0.20069     C
C      0.20069  0.97055  0.79931     C
H       0.2047   0.0736   0.1779     H
H       0.2047   0.0736   0.8221     H
H       0.2047   0.1779   0.0736     H
H       0.2047   0.1779   0.9264     H
H       0.2047   0.3221   0.4264     H
H       0.2047   0.3221   0.5736     H
H       0.2047   0.4264   0.3221     H
H       0.2047   0.4264   0.6779     H
H       0.2047   0.5736   0.3221     H
H       0.2047   0.5736   0.6779     H
H       0.2047   0.6779   0.4264     H
H       0.2047   0.6779   0.5736     H
H       0.2047   0.8221   0.0736     H
H       0.2047   0.8221   0.9264     H
H       0.2047   0.9264   0.1779     H
H       0.2047   0.9264   0.8221     H
Cr       0.214  0.02456  0.02456    Cr
Cr       0.214  0.02456  0.97544    Cr
Cr       0.214  0.47544  0.47544    Cr
Cr       0.214  0.47544  0.52456    Cr
Cr       0.214  0.52456  0.47544    Cr
Cr       0.214  0.52456  0.52456    Cr
Cr       0.214  0.97544  0.02456    Cr
Cr       0.214  0.97544  0.97544    Cr
C      0.22474  0.02945  0.22474     C
C      0.22474  0.02945  0.77526     C
C      0.22474  0.22474  0.02945     C
C      0.22474  0.22474  0.97055     C
C      0.22474  0.27526  0.47055     C
C      0.22474  0.27526  0.52945     C
C      0.22474  0.47055  0.27526     C
C      0.22474  0.47055  0.72474     C
C      0.22474  0.52945  0.27526     C
C      0.22474  0.52945  0.72474     C
C      0.22474  0.72474  0.47055     C
C      0.22474  0.72474  0.52945     C
C      0.22474  0.77526  0.02945     C
C      0.22474  0.77526  0.97055     C
C      0.22474  0.97055  0.22474     C
C      0.22474  0.97055  0.77526     C
H       0.2314   0.0703    0.071     H
H       0.2314   0.0703    0.929     H
H       0.2314    0.429   0.4297     H
H       0.2314    0.429   0.5703     H
H       0.2314   0.5703    0.429     H
H       0.2314   0.5703    0.571     H
H       0.2314    0.929   0.0703     H
H       0.2314    0.929   0.9297     H
H        0.233   0.0496    0.233     H
H        0.233   0.0496    0.767     H
H        0.233    0.233   0.0496     H
H        0.233    0.233   0.9504     H
H        0.233    0.267   0.4504     H
H        0.233    0.267   0.5496     H
H        0.233   0.4504    0.267     H
H        0.233   0.4504    0.733     H
H        0.233   0.5496    0.267     H
H        0.233   0.5496    0.733     H
H        0.233    0.733   0.4504     H
H        0.233    0.733   0.5496     H
H        0.233    0.767   0.0496     H
H        0.233    0.767   0.9504     H
H        0.233   0.9504    0.233     H
H        0.233   0.9504    0.767     H
C      0.23676      0.0  0.23676     C
C      0.23676      0.0  0.76324     C
C      0.23676  0.23676      0.0     C
C      0.23676  0.26324      0.5     C
C      0.23676      0.5  0.26324     C
C      0.23676      0.5  0.73676     C
C      0.23676  0.73676      0.5     C
C      0.23676  0.76324      0.0     C
O       0.2446   0.0592   0.0592     O
O       0.2446   0.0592   0.9408     O
O       0.2446   0.4408   0.4408     O
O       0.2446   0.4408   0.5592     O
O       0.2446   0.5592   0.4408     O
O       0.2446   0.5592   0.5592     O
O       0.2446   0.9408   0.0592     O
O       0.2446   0.9408   0.9408     O
H       0.2481   0.0157   0.4765     H
H       0.2481   0.0157   0.5235     H
H       0.2481   0.0235   0.4843     H
H       0.2481   0.0235   0.5157     H
H       0.2481   0.4765   0.0157     H
H       0.2481   0.4765   0.9843     H
H       0.2481   0.4843   0.0235     H
H       0.2481   0.4843   0.9765     H
H       0.2481   0.5157   0.0235     H
H       0.2481   0.5157   0.9765     H
H       0.2481   0.5235   0.0157     H
H       0.2481   0.5235   0.9843     H
H       0.2481   0.9765   0.4843     H
H       0.2481   0.9765   0.5157     H
H       0.2481   0.9843   0.4765     H
H       0.2481   0.9843   0.5235     H
O       0.2496      0.0    0.037     O
O       0.2496      0.0    0.963     O
O       0.2496    0.037      0.0     O
O       0.2496    0.463      0.5     O
O       0.2496      0.5    0.463     O
O       0.2496      0.5    0.537     O
O       0.2496    0.537      0.5     O
O       0.2496    0.963      0.0     O
O       0.2504      0.0    0.463     O
O       0.2504      0.0    0.537     O
O       0.2504    0.037      0.5     O
O       0.2504    0.463      0.0     O
O       0.2504      0.5    0.037     O
O       0.2504      0.5    0.963     O
O       0.2504    0.537      0.0     O
O       0.2504    0.963      0.5     O
H       0.2519   0.0157   0.0235     H
H       0.2519   0.0157   0.9765     H
H       0.2519   0.0235   0.0157     H
H       0.2519   0.0235   0.9843     H
H       0.2519   0.4765   0.4843     H
H       0.2519   0.4765   0.5157     H
H       0.2519   0.4843   0.4765     H
H       0.2519   0.4843   0.5235     H
H       0.2519   0.5157   0.4765     H
H       0.2519   0.5157   0.5235     H
H       0.2519   0.5235   0.4843     H
H       0.2519   0.5235   0.5157     H
H       0.2519   0.9765   0.0157     H
H       0.2519   0.9765   0.9843     H
H       0.2519   0.9843   0.0235     H
H       0.2519   0.9843   0.9765     H
O       0.2554   0.0592   0.4408     O
O       0.2554   0.0592   0.5592     O
O       0.2554   0.4408   0.0592     O
O       0.2554   0.4408   0.9408     O
O       0.2554   0.5592   0.0592     O
O       0.2554   0.5592   0.9408     O
O       0.2554   0.9408   0.4408     O
O       0.2554   0.9408   0.5592     O
C      0.26324      0.0  0.26324     C
C      0.26324      0.0  0.73676     C
C      0.26324  0.23676      0.5     C
C      0.26324  0.26324      0.0     C
C      0.26324      0.5  0.23676     C
C      0.26324      0.5  0.76324     C
C      0.26324  0.73676      0.0     C
C      0.26324  0.76324      0.5     C
H        0.267   0.0496    0.267     H
H        0.267   0.0496    0.733     H
H        0.267    0.233   0.4504     H
H        0.267    0.233   0.5496     H
H        0.267    0.267   0.0496     H
H        0.267    0.267   0.9504     H
H        0.267   0.4504    0.233     H
H        0.267   0.4504    0.767     H
H        0.267   0.5496    0.233     H
H        0.267   0.5496    0.767     H
H        0.267    0.733   0.0496     H
H        0.267    0.733   0.9504     H
H        0.267    0.767   0.4504     H
H        0.267    0.767   0.5496     H
H        0.267   0.9504    0.267     H
H        0.267   0.9504    0.733     H
H       0.2686   0.0703    0.429     H
H       0.2686   0.0703    0.571     H
H       0.2686    0.429   0.0703     H
H       0.2686    0.429   0.9297     H
H       0.2686   0.5703    0.071     H
H       0.2686   0.5703    0.929     H
H       0.2686    0.929   0.4297     H
H       0.2686    0.929   0.5703     H
C      0.27526  0.02945  0.27526     C
C      0.27526  0.02945  0.72474     C
C      0.27526  0.22474  0.47055     C
C      0.27526  0.22474  0.52945     C
C      0.27526  0.27526  0.02945     C
C      0.27526  0.27526  0.97055     C
C      0.27526  0.47055  0.22474     C
C      0.27526  0.47055  0.77526     C
C      0.27526  0.52945  0.22474     C
C      0.27526  0.52945  0.77526     C
C      0.27526  0.72474  0.02945     C
C      0.27526  0.72474  0.97055     C
C      0.27526  0.77526  0.47055     C
C      0.27526  0.77526  0.52945     C
C      0.27526  0.97055  0.27526     C
C      0.27526  0.97055  0.72474     C
Cr       0.286  0.02456  0.47544    Cr
Cr       0.286  0.02456  0.52456    Cr
Cr       0.286  0.47544  0.02456    Cr
Cr       0.286  0.47544  0.97544    Cr
Cr       0.286  0.52456  0.02456    Cr
Cr       0.286  0.52456  0.97544    Cr
Cr       0.286  0.97544  0.47544    Cr
Cr       0.286  0.97544  0.52456    Cr
H       0.2951   0.0735   0.3225     H
H       0.2951   0.0735   0.6775     H
H       0.2951   0.1775   0.4265     H
H       0.2951   0.1775   0.5735     H
H       0.2951   0.3225   0.0735     H
H       0.2951   0.3225   0.9265     H
H       0.2951   0.4265   0.1775     H
H       0.2951   0.4265   0.8225     H
H       0.2951   0.5735   0.1775     H
H       0.2951   0.5735   0.8225     H
H       0.2951   0.6775   0.0735     H
H       0.2951   0.6775   0.9265     H
H       0.2951   0.8225   0.4265     H
H       0.2951   0.8225   0.5735     H
H       0.2951   0.9265   0.3225     H
H       0.2951   0.9265   0.6775     H
C      0.29931  0.02945  0.29931     C
C      0.29931  0.02945  0.70069     C
C      0.29931  0.20069  0.47055     C
C      0.29931  0.20069  0.52945     C
C      0.29931  0.29931  0.02945     C
C      0.29931  0.29931  0.97055     C
C      0.29931  0.47055  0.20069     C
C      0.29931  0.47055  0.79931     C
C      0.29931  0.52945  0.20069     C
C      0.29931  0.52945  0.79931     C
C      0.29931  0.70069  0.02945     C
C      0.29931  0.70069  0.97055     C
C      0.29931  0.79931  0.47055     C
C      0.29931  0.79931  0.52945     C
C      0.29931  0.97055  0.29931     C
C      0.29931  0.97055  0.70069     C
H        0.306      0.0   0.3761     H
H        0.306      0.0   0.6239     H
H        0.306   0.1239      0.5     H
H        0.306   0.3761      0.0     H
H        0.306      0.5   0.1239     H
H        0.306      0.5   0.8761     H
H        0.306   0.6239      0.0     H
H        0.306   0.8761      0.5     H
C      0.31133      0.0  0.31133     C
C      0.31133      0.0  0.68867     C
C      0.31133  0.18867      0.5     C
C      0.31133  0.31133      0.0     C
C      0.31133      0.5  0.18867     C
C      0.31133      0.5  0.81133     C
C      0.31133  0.68867      0.0     C
C      0.31133  0.81133      0.5     C
O      0.31266      0.0  0.43668     O
O      0.31266      0.0  0.56332     O
O      0.31266  0.06332      0.5     O
O      0.31266  0.43668      0.0     O
O      0.31266      0.5  0.06332     O
O      0.31266      0.5  0.93668     O
O      0.31266  0.56332      0.0     O
O      0.31266  0.93668      0.5     O
C      0.31268  0.06112  0.31268     C
C      0.31268  0.06112  0.68732     C
C      0.31268  0.18732  0.43888     C
C      0.31268  0.18732  0.56112     C
C      0.31268  0.31268  0.06112     C
C      0.31268  0.31268  0.93888     C
C      0.31268  0.43888  0.18732     C
C      0.31268  0.43888  0.81268     C
C      0.31268  0.56112  0.18732     C
C      0.31268  0.56112  0.81268     C
C      0.31268  0.68732  0.06112     C
C      0.31268  0.68732  0.93888     C
C      0.31268  0.81268  0.43888     C
C      0.31268  0.81268  0.56112     C
C      0.31268  0.93888  0.31268     C
C      0.31268  0.93888  0.68732     C
O       0.3132      0.0      0.5     O
O       0.3132      0.5      0.0     O
H       0.3221   0.0736   0.2953     H
H       0.3221   0.0736   0.7047     H
H       0.3221   0.2047   0.4264     H
H       0.3221   0.2047   0.5736     H
H       0.3221   0.2953   0.0736     H
H       0.3221   0.2953   0.9264     H
H       0.3221   0.4264   0.2047     H
H       0.3221   0.4264   0.7953     H
H       0.3221   0.5736   0.2047     H
H       0.3221   0.5736   0.7953     H
H       0.3221   0.7047   0.0736     H
H       0.3221   0.7047   0.9264     H
H       0.3221   0.7953   0.4264     H
H       0.3221   0.7953   0.5736     H
H       0.3221   0.9264   0.2953     H
H       0.3221   0.9264   0.7047     H
C      0.32847      0.0  0.37011     C
C      0.32847      0.0  0.62989     C
C      0.32847  0.12989      0.5     C
C      0.32847  0.37011      0.0     C
C      0.32847      0.5  0.12989     C
C      0.32847      0.5  0.87011     C
C      0.32847  0.62989      0.0     C
C      0.32847  0.87011      0.5     C
H       0.3287   0.0567    0.329     H
H       0.3287   0.0567    0.671     H
H       0.3287    0.171   0.4433     H
H       0.3287    0.171   0.5567     H
H       0.3287    0.329   0.0567     H
H       0.3287    0.329   0.9433     H
H       0.3287   0.4433    0.171     H
H       0.3287   0.4433    0.829     H
H       0.3287   0.5567    0.171     H
H       0.3287   0.5567    0.829     H
H       0.3287    0.671   0.0567     H
H       0.3287    0.671   0.9433     H
H       0.3287    0.829   0.4433     H
H       0.3287    0.829   0.5567     H
H       0.3287   0.9433    0.329     H
H       0.3287   0.9433    0.671     H
C      0.33726      0.0  0.33726     C
C      0.33726      0.0  0.66274     C
C      0.33726  0.16274      0.5     C
C      0.33726  0.33726      0.0     C
C      0.33726      0.5  0.16274     C
C      0.33726      0.5  0.83726     C
C      0.33726  0.66274      0.0     C
C      0.33726  0.83726      0.5     C
C      0.34312      0.0  0.42979     C
C      0.34312      0.0  0.57021     C
C      0.34312  0.07021      0.5     C
C      0.34312  0.42979      0.0     C
C      0.34312      0.5  0.07021     C
C      0.34312      0.5  0.92979     C
C      0.34312  0.57021      0.0     C
C      0.34312  0.92979      0.5     C
C      0.35253      0.0  0.39414     C
C      0.35253      0.0  0.60586     C
C      0.35253  0.10586      0.5     C
C      0.35253  0.39414      0.0     C
C      0.35253      0.5  0.10586     C
C      0.35253      0.5  0.89414     C
C      0.35253  0.60586      0.0     C
C      0.35253  0.89414      0.5     C
Cr      0.3625      0.0      0.5    Cr
Cr      0.3625      0.5      0.0    Cr
O       0.3651      0.0  0.45194     O
O       0.3651      0.0  0.54806     O
O       0.3651  0.04806      0.5     O
O       0.3651  0.45194      0.0     O
O       0.3651      0.5  0.04806     O
O       0.3651      0.5  0.95194     O
O       0.3651  0.54806      0.0     O
O       0.3651  0.95194      0.5     O
C      0.37011      0.0  0.32847     C
C      0.37011      0.0  0.67153     C
C      0.37011  0.17153      0.5     C
C      0.37011  0.32847      0.0     C
C      0.37011      0.5  0.17153     C
C      0.37011      0.5  0.82847     C
C      0.37011  0.67153      0.0     C
C      0.37011  0.82847      0.5     C
H       0.3761      0.0    0.306     H
H       0.3761      0.0    0.694     H
H       0.3761    0.194      0.5     H
H       0.3761    0.306      0.0     H
H       0.3761      0.5    0.194     H
H       0.3761      0.5    0.806     H
H       0.3761    0.694      0.0     H
H       0.3761    0.806      0.5     H
C      0.38537      0.0  0.38537     C
C      0.38537      0.0  0.61463     C
C      0.38537  0.11463      0.5     C
C      0.38537  0.38537      0.0     C
C      0.38537      0.5  0.11463     C
C      0.38537      0.5  0.88537     C
C      0.38537  0.61463      0.0     C
C      0.38537  0.88537      0.5     C
C      0.39414      0.0  0.35253     C
C      0.39414      0.0  0.64747     C
C      0.39414  0.14747      0.5     C
C      0.39414  0.35253      0.0     C
C      0.39414      0.5  0.14747     C
C      0.39414      0.5  0.85253     C
C      0.39414  0.64747      0.0     C
C      0.39414  0.85253      0.5     C
H       0.4018      0.0   0.4018     H
H       0.4018      0.0   0.5982     H
H       0.4018   0.0982      0.5     H
H       0.4018   0.4018      0.0     H
H       0.4018      0.5   0.0982     H
H       0.4018      0.5   0.9018     H
H       0.4018   0.5982      0.0     H
H       0.4018   0.9018      0.5     H
O       0.4123      0.0      0.5     O
O       0.4123      0.5      0.0     O
H       0.4191      0.0   0.4806     H
H       0.4191      0.0   0.5194     H
H       0.4191   0.0194      0.5     H
H       0.4191   0.4806      0.0     H
H       0.4191      0.5   0.0194     H
H       0.4191      0.5   0.9806     H
H       0.4191   0.5194      0.0     H
H       0.4191   0.9806      0.5     H
H       0.4264   0.1779   0.2953     H
H       0.4264   0.1779   0.7047     H
H       0.4264   0.2047   0.3221     H
H       0.4264   0.2047   0.6779     H
H       0.4264   0.2953   0.1779     H
H       0.4264   0.2953   0.8221     H
H       0.4264   0.3221   0.2047     H
H       0.4264   0.3221   0.7953     H
H       0.4264   0.6779   0.2047     H
H       0.4264   0.6779   0.7953     H
H       0.4264   0.7047   0.1779     H
H       0.4264   0.7047   0.8221     H
H       0.4264   0.7953   0.3221     H
H       0.4264   0.7953   0.6779     H
H       0.4264   0.8221   0.2953     H
H       0.4264   0.8221   0.7047     H
H        0.429   0.0703   0.2686     H
H        0.429   0.0703   0.7314     H
H        0.429   0.2314   0.4297     H
H        0.429   0.2314   0.5703     H
H        0.429   0.2686   0.0703     H
H        0.429   0.2686   0.9297     H
H        0.429   0.4297   0.2314     H
H        0.429   0.4297   0.7686     H
H        0.429   0.5703   0.2314     H
H        0.429   0.5703   0.7686     H
H        0.429   0.7314   0.0703     H
H        0.429   0.7314   0.9297     H
H        0.429   0.7686   0.4297     H
H        0.429   0.7686   0.5703     H
H        0.429   0.9297   0.2686     H
H        0.429   0.9297   0.7314     H
C      0.42979      0.0  0.34312     C
C      0.42979      0.0  0.65688     C
C      0.42979  0.15688      0.5     C
C      0.42979  0.34312      0.0     C
C      0.42979      0.5  0.15688     C
C      0.42979      0.5  0.84312     C
C      0.42979  0.65688      0.0     C
C      0.42979  0.84312      0.5     C
O      0.43668      0.0  0.31266     O
O      0.43668      0.0  0.68734     O
O      0.43668  0.18734      0.5     O
O      0.43668  0.31266      0.0     O
O      0.43668      0.5  0.18734     O
O      0.43668      0.5  0.81266     O
O      0.43668  0.68734      0.0     O
O      0.43668  0.81266      0.5     O
C      0.43888  0.18732  0.31268     C
C      0.43888  0.18732  0.68732     C
C      0.43888  0.31268  0.18732     C
C      0.43888  0.31268  0.81268     C
C      0.43888  0.68732  0.18732     C
C      0.43888  0.68732  0.81268     C
C      0.43888  0.81268  0.31268     C
C      0.43888  0.81268  0.68732     C
O       0.4408   0.0592   0.2554     O
O       0.4408   0.0592   0.7446     O
O       0.4408   0.2446   0.4408     O
O       0.4408   0.2446   0.5592     O
O       0.4408   0.2554   0.0592     O
O       0.4408   0.2554   0.9408     O
O       0.4408   0.4408   0.2446     O
O       0.4408   0.4408   0.7554     O
O       0.4408   0.5592   0.2446     O
O       0.4408   0.5592   0.7554     O
O       0.4408   0.7446   0.0592     O
O       0.4408   0.7446   0.9408     O
O       0.4408   0.7554   0.4408     O
O       0.4408   0.7554   0.5592     O
O       0.4408   0.9408   0.2554     O
O       0.4408   0.9408   0.7446     O
H       0.4433    0.171   0.3287     H
H       0.4433    0.171   0.6713     H
H       0.4433   0.3287    0.171     H
H       0.4433   0.3287    0.829     H
H       0.4433    0.671   0.1713     H
H       0.4433    0.671   0.8287     H
H       0.4433   0.8287    0.329     H
H       0.4433   0.8287    0.671     H
H       0.4504    0.233    0.267     H
H       0.4504    0.233    0.733     H
H       0.4504    0.267    0.233     H
H       0.4504    0.267    0.767     H
H       0.4504    0.733    0.233     H
H       0.4504    0.733    0.767     H
H       0.4504    0.767    0.267     H
H       0.4504    0.767    0.733     H
O      0.45194      0.0   0.3651     O
O      0.45194      0.0   0.6349     O
O      0.45194   0.1349      0.5     O
O      0.45194   0.3651      0.0     O
O      0.45194      0.5   0.1349     O
O      0.45194      0.5   0.8651     O
O      0.45194   0.6349      0.0     O
O      0.45194   0.8651      0.5     O
O        0.463      0.0   0.2504     O
O        0.463      0.0   0.7496     O
O        0.463   0.2496      0.5     O
O        0.463   0.2504      0.0     O
O        0.463      0.5   0.2496     O
O        0.463      0.5   0.7504     O
O        0.463   0.7496      0.0     O
O        0.463   0.7504      0.5     O
C      0.47055  0.20069  0.29931     C
C      0.47055  0.20069  0.70069     C
C      0.47055  0.22474  0.27526     C
C      0.47055  0.22474  0.72474     C
C      0.47055  0.27526  0.22474     C
C      0.47055  0.27526  0.77526     C
C      0.47055  0.29931  0.20069     C
C      0.47055  0.29931  0.79931     C
C      0.47055  0.70069  0.20069     C
C      0.47055  0.70069  0.79931     C
C      0.47055  0.72474  0.22474     C
C      0.47055  0.72474  0.77526     C
C      0.47055  0.77526  0.27526     C
C      0.47055  0.77526  0.72474     C
C      0.47055  0.79931  0.29931     C
C      0.47055  0.79931  0.70069     C
Cr     0.47544  0.02456    0.286    Cr
Cr     0.47544  0.02456    0.714    Cr
Cr     0.47544    0.214  0.47544    Cr
Cr     0.47544    0.214  0.52456    Cr
Cr     0.47544    0.286  0.02456    Cr
Cr     0.47544    0.286  0.97544    Cr
Cr     0.47544  0.47544    0.214    Cr
Cr     0.47544  0.47544    0.786    Cr
Cr     0.47544  0.52456    0.214    Cr
Cr     0.47544  0.52456    0.786    Cr
Cr     0.47544    0.714  0.02456    Cr
Cr     0.47544    0.714  0.97544    Cr
Cr     0.47544    0.786  0.47544    Cr
Cr     0.47544    0.786  0.52456    Cr
Cr     0.47544  0.97544    0.286    Cr
Cr     0.47544  0.97544    0.714    Cr
H       0.4765   0.0157   0.2481     H
H       0.4765   0.0157   0.7519     H
H       0.4765   0.2481   0.0157     H
H       0.4765   0.2481   0.9843     H
H       0.4765   0.2519   0.4843     H
H       0.4765   0.2519   0.5157     H
H       0.4765   0.4843   0.2519     H
H       0.4765   0.4843   0.7481     H
H       0.4765   0.5157   0.2519     H
H       0.4765   0.5157   0.7481     H
H       0.4765   0.7481   0.4843     H
H       0.4765   0.7481   0.5157     H
H       0.4765   0.7519   0.0157     H
H       0.4765   0.7519   0.9843     H
H       0.4765   0.9843   0.2481     H
H       0.4765   0.9843   0.7519     H
H       0.4806      0.0   0.4191     H
H       0.4806      0.0   0.5809     H
H       0.4806   0.0809      0.5     H
H       0.4806   0.4191      0.0     H
H       0.4806      0.5   0.0809     H
H       0.4806      0.5   0.9191     H
H       0.4806   0.5809      0.0     H
H       0.4806   0.9191      0.5     H
H       0.4843   0.0235   0.2481     H
H       0.4843   0.0235   0.7519     H
H       0.4843   0.2481   0.0235     H
H       0.4843   0.2481   0.9765     H
H       0.4843   0.2519   0.4765     H
H       0.4843   0.2519   0.5235     H
H       0.4843   0.4765   0.2519     H
H       0.4843   0.4765   0.7481     H
H       0.4843   0.5235   0.2519     H
H       0.4843   0.5235   0.7481     H
H       0.4843   0.7481   0.4765     H
H       0.4843   0.7481   0.5235     H
H       0.4843   0.7519   0.0235     H
H       0.4843   0.7519   0.9765     H
H       0.4843   0.9765   0.2481     H
H       0.4843   0.9765   0.7519     H
O          0.5      0.0   0.3132     O
Cr         0.5      0.0   0.3625    Cr
O          0.5      0.0   0.4123     O
O          0.5      0.0   0.5877     O
Cr         0.5      0.0   0.6375    Cr
O          0.5      0.0   0.6868     O
H          0.5   0.0194   0.4191     H
H          0.5   0.0194   0.5809     H
O          0.5    0.037   0.2504     O
O          0.5    0.037   0.7496     O
O          0.5  0.04806   0.3651     O
O          0.5  0.04806   0.6349     O
O          0.5  0.06332  0.31266     O
O          0.5  0.06332  0.68734     O
C          0.5  0.07021  0.34312     C
C          0.5  0.07021  0.65688     C
H          0.5   0.0809   0.4806     H
H          0.5   0.0809   0.5194     H
O          0.5   0.0877      0.5     O
H          0.5   0.0982   0.4018     H
H          0.5   0.0982   0.5982     H
C          0.5  0.10586  0.35253     C
C          0.5  0.10586  0.64747     C
C          0.5  0.11463  0.38537     C
C          0.5  0.11463  0.61463     C
H          0.5   0.1239    0.306     H
H          0.5   0.1239    0.694     H
C          0.5  0.12989  0.32847     C
C          0.5  0.12989  0.67153     C
O          0.5   0.1349  0.45194     O
O          0.5   0.1349  0.54806     O
Cr         0.5   0.1375      0.5    Cr
C          0.5  0.14747  0.39414     C
C          0.5  0.14747  0.60586     C
C          0.5  0.15688  0.42979     C
C          0.5  0.15688  0.57021     C
C          0.5  0.16274  0.33726     C
C          0.5  0.16274  0.66274     C
C          0.5  0.17153  0.37011     C
C          0.5  0.17153  0.62989     C
O          0.5   0.1868      0.5     O
O          0.5  0.18734  0.43668     O
O          0.5  0.18734  0.56332     O
C          0.5  0.18867  0.31133     C
C          0.5  0.18867  0.68867     C
H          0.5    0.194   0.3761     H
H          0.5    0.194   0.6239     H
C          0.5  0.23676  0.26324     C
C          0.5  0.23676  0.73676     C
O          0.5   0.2496    0.463     O
O          0.5   0.2496    0.537     O
O          0.5   0.2504    0.037     O
O          0.5   0.2504    0.963     O
C          0.5  0.26324  0.23676     C
C          0.5  0.26324  0.76324     C
H          0.5    0.306   0.1239     H
H          0.5    0.306   0.8761     H
C          0.5  0.31133  0.18867     C
C          0.5  0.31133  0.81133     C
O          0.5  0.31266  0.06332     O
O          0.5  0.31266  0.93668     O
O          0.5   0.3132      0.0     O
C          0.5  0.32847  0.12989     C
C          0.5  0.32847  0.87011     C
C          0.5  0.33726  0.16274     C
C          0.5  0.33726  0.83726     C
C          0.5  0.34312  0.07021     C
C          0.5  0.34312  0.92979     C
C          0.5  0.35253  0.10586     C
C          0.5  0.35253  0.89414     C
Cr         0.5   0.3625      0.0    Cr
O          0.5   0.3651  0.04806     O
O          0.5   0.3651  0.95194     O
C          0.5  0.37011  0.17153     C
C          0.5  0.37011  0.82847     C
H          0.5   0.3761    0.194     H
H          0.5   0.3761    0.806     H
C          0.5  0.38537  0.11463     C
C          0.5  0.38537  0.88537     C
C          0.5  0.39414  0.14747     C
C          0.5  0.39414  0.85253     C
H          0.5   0.4018   0.0982     H
H          0.5   0.4018   0.9018     H
O          0.5   0.4123      0.0     O
H          0.5   0.4191   0.0194     H
H          0.5   0.4191   0.9806     H
C          0.5  0.42979  0.15688     C
C          0.5  0.42979  0.84312     C
O          0.5  0.43668  0.18734     O
O          0.5  0.43668  0.81266     O
O          0.5  0.45194   0.1349     O
O          0.5  0.45194   0.8651     O
O          0.5    0.463   0.2496     O
O          0.5    0.463   0.7504     O
H          0.5   0.4806   0.0809     H
H          0.5   0.4806   0.9191     H
O          0.5      0.5   0.0877     O
Cr         0.5      0.5   0.1375    Cr
O          0.5      0.5   0.1868     O
O          0.5      0.5   0.8132     O
Cr         0.5      0.5   0.8625    Cr
O          0.5      0.5   0.9123     O
H          0.5   0.5194   0.0809     H
H          0.5   0.5194   0.9191     H
O          0.5    0.537   0.2496     O
O          0.5    0.537   0.7504     O
O          0.5  0.54806   0.1349     O
O          0.5  0.54806   0.8651     O
O          0.5  0.56332  0.18734     O
O          0.5  0.56332  0.81266     O
C          0.5  0.57021  0.15688     C
C          0.5  0.57021  0.84312     C
H          0.5   0.5809   0.0194     H
H          0.5   0.5809   0.9806     H
O          0.5   0.5877      0.0     O
H          0.5   0.5982   0.0982     H
H          0.5   0.5982   0.9018     H
C          0.5  0.60586  0.14747     C
C          0.5  0.60586  0.85253     C
C          0.5  0.61463  0.11463     C
C          0.5  0.61463  0.88537     C
H          0.5   0.6239    0.194     H
H          0.5   0.6239    0.806     H
C          0.5  0.62989  0.17153     C
C          0.5  0.62989  0.82847     C
O          0.5   0.6349  0.04806     O
O          0.5   0.6349  0.95194     O
Cr         0.5   0.6375      0.0    Cr
C          0.5  0.64747  0.10586     C
C          0.5  0.64747  0.89414     C
C          0.5  0.65688  0.07021     C
C          0.5  0.65688  0.92979     C
C          0.5  0.66274  0.16274     C
C          0.5  0.66274  0.83726     C
C          0.5  0.67153  0.12989     C
C          0.5  0.67153  0.87011     C
O          0.5   0.6868      0.0     O
O          0.5  0.68734  0.06332     O
O          0.5  0.68734  0.93668     O
C          0.5  0.68867  0.18867     C
C          0.5  0.68867  0.81133     C
H          0.5    0.694   0.1239     H
H          0.5    0.694   0.8761     H
C          0.5  0.73676  0.23676     C
C          0.5  0.73676  0.76324     C
O          0.5   0.7496    0.037     O
O          0.5   0.7496    0.963     O
O          0.5   0.7504    0.463     O
O          0.5   0.7504    0.537     O
C          0.5  0.76324  0.26324     C
C          0.5  0.76324  0.73676     C
H          0.5    0.806   0.3761     H
H          0.5    0.806   0.6239     H
C          0.5  0.81133  0.31133     C
C          0.5  0.81133  0.68867     C
O          0.5  0.81266  0.43668     O
O          0.5  0.81266  0.56332     O
O          0.5   0.8132      0.5     O
C          0.5  0.82847  0.37011     C
C          0.5  0.82847  0.62989     C
C          0.5  0.83726  0.33726     C
C          0.5  0.83726  0.66274     C
C          0.5  0.84312  0.42979     C
C          0.5  0.84312  0.57021     C
C          0.5  0.85253  0.39414     C
C          0.5  0.85253  0.60586     C
Cr         0.5   0.8625      0.5    Cr
O          0.5   0.8651  0.45194     O
O          0.5   0.8651  0.54806     O
C          0.5  0.87011  0.32847     C
C          0.5  0.87011  0.67153     C
H          0.5   0.8761    0.306     H
H          0.5   0.8761    0.694     H
C          0.5  0.88537  0.38537     C
C          0.5  0.88537  0.61463     C
C          0.5  0.89414  0.35253     C
C          0.5  0.89414  0.64747     C
H          0.5   0.9018   0.4018     H
H          0.5   0.9018   0.5982     H
O          0.5   0.9123      0.5     O
H          0.5   0.9191   0.4806     H
H          0.5   0.9191   0.5194     H
C          0.5  0.92979  0.34312     C
C          0.5  0.92979  0.65688     C
O          0.5  0.93668  0.31266     O
O          0.5  0.93668  0.68734     O
O          0.5  0.95194   0.3651     O
O          0.5  0.95194   0.6349     O
O          0.5    0.963   0.2504     O
O          0.5    0.963   0.7496     O
H          0.5   0.9806   0.4191     H
H          0.5   0.9806   0.5809     H
H       0.5157   0.0235   0.2481     H
H       0.5157   0.0235   0.7519     H
H       0.5157   0.2481   0.0235     H
H       0.5157   0.2481   0.9765     H
H       0.5157   0.2519   0.4765     H
H       0.5157   0.2519   0.5235     H
H       0.5157   0.4765   0.2519     H
H       0.5157   0.4765   0.7481     H
H       0.5157   0.5235   0.2519     H
H       0.5157   0.5235   0.7481     H
H       0.5157   0.7481   0.4765     H
H       0.5157   0.7481   0.5235     H
H       0.5157   0.7519   0.0235     H
H       0.5157   0.7519   0.9765     H
H       0.5157   0.9765   0.2481     H
H       0.5157   0.9765   0.7519     H
H       0.5194      0.0   0.4191     H
H       0.5194      0.0   0.5809     H
H       0.5194   0.0809      0.5     H
H       0.5194   0.4191      0.0     H
H       0.5194      0.5   0.0809     H
H       0.5194      0.5   0.9191     H
H       0.5194   0.5809      0.0     H
H       0.5194   0.9191      0.5     H
H       0.5235   0.0157   0.2481     H
H       0.5235   0.0157   0.7519     H
H       0.5235   0.2481   0.0157     H
H       0.5235   0.2481   0.9843     H
H       0.5235   0.2519   0.4843     H
H       0.5235   0.2519   0.5157     H
H       0.5235   0.4843   0.2519     H
H       0.5235   0.4843   0.7481     H
H       0.5235   0.5157   0.2519     H
H       0.5235   0.5157   0.7481     H
H       0.5235   0.7481   0.4843     H
H       0.5235   0.7481   0.5157     H
H       0.5235   0.7519   0.0157     H
H       0.5235   0.7519   0.9843     H
H       0.5235   0.9843   0.2481     H
H       0.5235   0.9843   0.7519     H
Cr     0.52456  0.02456    0.286    Cr
Cr     0.52456  0.02456    0.714    Cr
Cr     0.52456    0.214  0.47544    Cr
Cr     0.52456    0.214  0.52456    Cr
Cr     0.52456    0.286  0.02456    Cr
Cr     0.52456    0.286  0.97544    Cr
Cr     0.52456  0.47544    0.214    Cr
Cr     0.52456  0.47544    0.786    Cr
Cr     0.52456  0.52456    0.214    Cr
Cr     0.52456  0.52456    0.786    Cr
Cr     0.52456    0.714  0.02456    Cr
Cr     0.52456    0.714  0.97544    Cr
Cr     0.52456    0.786  0.47544    Cr
Cr     0.52456    0.786  0.52456    Cr
Cr     0.52456  0.97544    0.286    Cr
Cr     0.52456  0.97544    0.714    Cr
C      0.52945  0.20069  0.29931     C
C      0.52945  0.20069  0.70069     C
C      0.52945  0.22474  0.27526     C
C      0.52945  0.22474  0.72474     C
C      0.52945  0.27526  0.22474     C
C      0.52945  0.27526  0.77526     C
C      0.52945  0.29931  0.20069     C
C      0.52945  0.29931  0.79931     C
C      0.52945  0.70069  0.20069     C
C      0.52945  0.70069  0.79931     C
C      0.52945  0.72474  0.22474     C
C      0.52945  0.72474  0.77526     C
C      0.52945  0.77526  0.27526     C
C      0.52945  0.77526  0.72474     C
C      0.52945  0.79931  0.29931     C
C      0.52945  0.79931  0.70069     C
O        0.537      0.0   0.2504     O
O        0.537      0.0   0.7496     O
O        0.537   0.2496      0.5     O
O        0.537   0.2504      0.0     O
O        0.537      0.5   0.2496     O
O        0.537      0.5   0.7504     O
O        0.537   0.7496      0.0     O
O        0.537   0.7504      0.5     O
O      0.54806      0.0   0.3651     O
O      0.54806      0.0   0.6349     O
O      0.54806   0.1349      0.5     O
O      0.54806   0.3651      0.0     O
O      0.54806      0.5   0.1349     O
O      0.54806      0.5   0.8651     O
O      0.54806   0.6349      0.0     O
O      0.54806   0.8651      0.5     O
H       0.5496    0.233    0.267     H
H       0.5496    0.233    0.733     H
H       0.5496    0.267    0.233     H
H       0.5496    0.267    0.767     H
H       0.5496    0.733    0.233     H
H       0.5496    0.733    0.767     H
H       0.5496    0.767    0.267     H
H       0.5496    0.767    0.733     H
H       0.5567    0.171   0.3287     H
H       0.5567    0.171   0.6713     H
H       0.5567   0.3287    0.171     H
H       0.5567   0.3287    0.829     H
H       0.5567    0.671   0.1713     H
H       0.5567    0.671   0.8287     H
H       0.5567   0.8287    0.329     H
H       0.5567   0.8287    0.671     H
O       0.5592   0.0592   0.2554     O
O       0.5592   0.0592   0.7446     O
O       0.5592   0.2446   0.4408     O
O       0.5592   0.2446   0.5592     O
O       0.5592   0.2554   0.0592     O
O       0.5592   0.2554   0.9408     O
O       0.5592   0.4408   0.2446     O
O       0.5592   0.4408   0.7554     O
O       0.5592   0.5592   0.2446     O
O       0.5592   0.5592   0.7554     O
O       0.5592   0.7446   0.0592     O
O       0.5592   0.7446   0.9408     O
O       0.5592   0.7554   0.4408     O
O       0.5592   0.7554   0.5592     O
O       0.5592   0.9408   0.2554     O
O       0.5592   0.9408   0.7446     O
C      0.56112  0.18732  0.31268     C
C      0.56112  0.18732  0.68732     C
C      0.56112  0.31268  0.18732     C
C      0.56112  0.31268  0.81268     C
C      0.56112  0.68732  0.18732     C
C      0.56112  0.68732  0.81268     C
C      0.56112  0.81268  0.31268     C
C      0.56112  0.81268  0.68732     C
O      0.56332      0.0  0.31266     O
O      0.56332      0.0  0.68734     O
O      0.56332  0.18734      0.5     O
O      0.56332  0.31266      0.0     O
O      0.56332      0.5  0.18734     O
O      0.56332      0.5  0.81266     O
O      0.56332  0.68734      0.0     O
O      0.56332  0.81266      0.5     O
C      0.57021      0.0  0.34312     C
C      0.57021      0.0  0.65688     C
C      0.57021  0.15688      0.5     C
C      0.57021  0.34312      0.0     C
C      0.57021      0.5  0.15688     C
C      0.57021      0.5  0.84312     C
C      0.57021  0.65688      0.0     C
C      0.57021  0.84312      0.5     C
H       0.5703    0.071   0.2686     H
H       0.5703    0.071   0.7314     H
H       0.5703   0.2314    0.429     H
H       0.5703   0.2314    0.571     H
H       0.5703   0.2686    0.071     H
H       0.5703   0.2686    0.929     H
H       0.5703    0.429   0.2314     H
H       0.5703    0.429   0.7686     H
H       0.5703    0.571   0.2314     H
H       0.5703    0.571   0.7686     H
H       0.5703   0.7314    0.071     H
H       0.5703   0.7314    0.929     H
H       0.5703   0.7686    0.429     H
H       0.5703   0.7686    0.571     H
H       0.5703    0.929   0.2686     H
H       0.5703    0.929   0.7314     H
H       0.5735   0.1775   0.2951     H
H       0.5735   0.1775   0.7049     H
H       0.5735   0.2049   0.3225     H
H       0.5735   0.2049   0.6775     H
H       0.5735   0.2951   0.1775     H
H       0.5735   0.2951   0.8225     H
H       0.5735   0.3225   0.2049     H
H       0.5735   0.3225   0.7951     H
H       0.5735   0.6775   0.2049     H
H       0.5735   0.6775   0.7951     H
H       0.5735   0.7049   0.1775     H
H       0.5735   0.7049   0.8225     H
H       0.5735   0.7951   0.3225     H
H       0.5735   0.7951   0.6775     H
H       0.5735   0.8225   0.2951     H
H       0.5735   0.8225   0.7049     H
H       0.5809      0.0   0.4806     H
H       0.5809      0.0   0.5194     H
H       0.5809   0.0194      0.5     H
H       0.5809   0.4806      0.0     H
H       0.5809      0.5   0.0194     H
H       0.5809      0.5   0.9806     H
H       0.5809   0.5194      0.0     H
H       0.5809   0.9806      0.5     H
O       0.5877      0.0      0.5     O
O       0.5877      0.5      0.0     O
H       0.5982      0.0   0.4018     H
H       0.5982      0.0   0.5982     H
H       0.5982   0.0982      0.5     H
H       0.5982   0.4018      0.0     H
H       0.5982      0.5   0.0982     H
H       0.5982      0.5   0.9018     H
H       0.5982   0.5982      0.0     H
H       0.5982   0.9018      0.5     H
C      0.60586      0.0  0.35253     C
C      0.60586      0.0  0.64747     C
C      0.60586  0.14747      0.5     C
C      0.60586  0.35253      0.0     C
C      0.60586      0.5  0.14747     C
C      0.60586      0.5  0.85253     C
C      0.60586  0.64747      0.0     C
C      0.60586  0.85253      0.5     C
C      0.61463      0.0  0.38537     C
C      0.61463      0.0  0.61463     C
C      0.61463  0.11463      0.5     C
C      0.61463  0.38537      0.0     C
C      0.61463      0.5  0.11463     C
C      0.61463      0.5  0.88537     C
C      0.61463  0.61463      0.0     C
C      0.61463  0.88537      0.5     C
H       0.6239      0.0    0.306     H
H       0.6239      0.0    0.694     H
H       0.6239    0.194      0.5     H
H       0.6239    0.306      0.0     H
H       0.6239      0.5    0.194     H
H       0.6239      0.5    0.806     H
H       0.6239    0.694      0.0     H
H       0.6239    0.806      0.5     H
C      0.62989      0.0  0.32847     C
C      0.62989      0.0  0.67153     C
C      0.62989  0.17153      0.5     C
C      0.62989  0.32847      0.0     C
C      0.62989      0.5  0.17153     C
C      0.62989      0.5  0.82847     C
C      0.62989  0.67153      0.0     C
C      0.62989  0.82847      0.5     C
O       0.6349      0.0  0.45194     O
O       0.6349      0.0  0.54806     O
O       0.6349  0.04806      0.5     O
O       0.6349  0.45194      0.0     O
O       0.6349      0.5  0.04806     O
O       0.6349      0.5  0.95194     O
O       0.6349  0.54806      0.0     O
O       0.6349  0.95194      0.5     O
Cr      0.6375      0.0      0.5    Cr
Cr      0.6375      0.5      0.0    Cr
C      0.64747      0.0  0.39414     C
C      0.64747      0.0  0.60586     C
C      0.64747  0.10586      0.5     C
C      0.64747  0.39414      0.0     C
C      0.64747      0.5  0.10586     C
C      0.64747      0.5  0.89414     C
C      0.64747  0.60586      0.0     C
C      0.64747  0.89414      0.5     C
C      0.65688      0.0  0.42979     C
C      0.65688      0.0  0.57021     C
C      0.65688  0.07021      0.5     C
C      0.65688  0.42979      0.0     C
C      0.65688      0.5  0.07021     C
C      0.65688      0.5  0.92979     C
C      0.65688  0.57021      0.0     C
C      0.65688  0.92979      0.5     C
C      0.66274      0.0  0.33726     C
C      0.66274      0.0  0.66274     C
C      0.66274  0.16274      0.5     C
C      0.66274  0.33726      0.0     C
C      0.66274      0.5  0.16274     C
C      0.66274      0.5  0.83726     C
C      0.66274  0.66274      0.0     C
C      0.66274  0.83726      0.5     C
H        0.671   0.0567   0.3287     H
H        0.671   0.0567   0.6713     H
H        0.671   0.1713   0.4433     H
H        0.671   0.1713   0.5567     H
H        0.671   0.3287   0.0567     H
H        0.671   0.3287   0.9433     H
H        0.671   0.4433   0.1713     H
H        0.671   0.4433   0.8287     H
H        0.671   0.5567   0.1713     H
H        0.671   0.5567   0.8287     H
H        0.671   0.6713   0.0567     H
H        0.671   0.6713   0.9433     H
H        0.671   0.8287   0.4433     H
H        0.671   0.8287   0.5567     H
H        0.671   0.9433   0.3287     H
H        0.671   0.9433   0.6713     H
C      0.67153      0.0  0.37011     C
C      0.67153      0.0  0.62989     C
C      0.67153  0.12989      0.5     C
C      0.67153  0.37011      0.0     C
C      0.67153      0.5  0.12989     C
C      0.67153      0.5  0.87011     C
C      0.67153  0.62989      0.0     C
C      0.67153  0.87011      0.5     C
H       0.6775   0.0735   0.2951     H
H       0.6775   0.0735   0.7049     H
H       0.6775   0.2049   0.4265     H
H       0.6775   0.2049   0.5735     H
H       0.6775   0.2951   0.0735     H
H       0.6775   0.2951   0.9265     H
H       0.6775   0.4265   0.2049     H
H       0.6775   0.4265   0.7951     H
H       0.6775   0.5735   0.2049     H
H       0.6775   0.5735   0.7951     H
H       0.6775   0.7049   0.0735     H
H       0.6775   0.7049   0.9265     H
H       0.6775   0.7951   0.4265     H
H       0.6775   0.7951   0.5735     H
H       0.6775   0.9265   0.2951     H
H       0.6775   0.9265   0.7049     H
O       0.6868      0.0      0.5     O
O       0.6868      0.5      0.0     O
C      0.68732  0.06112  0.31268     C
C      0.68732  0.06112  0.68732     C
C      0.68732  0.18732  0.43888     C
C      0.68732  0.18732  0.56112     C
C      0.68732  0.31268  0.06112     C
C      0.68732  0.31268  0.93888     C
C      0.68732  0.43888  0.18732     C
C      0.68732  0.43888  0.81268     C
C      0.68732  0.56112  0.18732     C
C      0.68732  0.56112  0.81268     C
C      0.68732  0.68732  0.06112     C
C      0.68732  0.68732  0.93888     C
C      0.68732  0.81268  0.43888     C
C      0.68732  0.81268  0.56112     C
C      0.68732  0.93888  0.31268     C
C      0.68732  0.93888  0.68732     C
O      0.68734      0.0  0.43668     O
O      0.68734      0.0  0.56332     O
O      0.68734  0.06332      0.5     O
O      0.68734  0.43668      0.0     O
O      0.68734      0.5  0.06332     O
O      0.68734      0.5  0.93668     O
O      0.68734  0.56332      0.0     O
O      0.68734  0.93668      0.5     O
C      0.68867      0.0  0.31133     C
C      0.68867      0.0  0.68867     C
C      0.68867  0.18867      0.5     C
C      0.68867  0.31133      0.0     C
C      0.68867      0.5  0.18867     C
C      0.68867      0.5  0.81133     C
C      0.68867  0.68867      0.0     C
C      0.68867  0.81133      0.5     C
H        0.694      0.0   0.3761     H
H        0.694      0.0   0.6239     H
H        0.694   0.1239      0.5     H
H        0.694   0.3761      0.0     H
H        0.694      0.5   0.1239     H
H        0.694      0.5   0.8761     H
H        0.694   0.6239      0.0     H
H        0.694   0.8761      0.5     H
C      0.70069  0.02945  0.29931     C
C      0.70069  0.02945  0.70069     C
C      0.70069  0.20069  0.47055     C
C      0.70069  0.20069  0.52945     C
C      0.70069  0.29931  0.02945     C
C      0.70069  0.29931  0.97055     C
C      0.70069  0.47055  0.20069     C
C      0.70069  0.47055  0.79931     C
C      0.70069  0.52945  0.20069     C
C      0.70069  0.52945  0.79931     C
C      0.70069  0.70069  0.02945     C
C      0.70069  0.70069  0.97055     C
C      0.70069  0.79931  0.47055     C
C      0.70069  0.79931  0.52945     C
C      0.70069  0.97055  0.29931     C
C      0.70069  0.97055  0.70069     C
H       0.7047   0.0736   0.3221     H
H       0.7047   0.0736   0.6779     H
H       0.7047   0.1779   0.4264     H
H       0.7047   0.1779   0.5736     H
H       0.7047   0.3221   0.0736     H
H       0.7047   0.3221   0.9264     H
H       0.7047   0.4264   0.1779     H
H       0.7047   0.4264   0.8221     H
H       0.7047   0.5736   0.1779     H
H       0.7047   0.5736   0.8221     H
H       0.7047   0.6779   0.0736     H
H       0.7047   0.6779   0.9264     H
H       0.7047   0.8221   0.4264     H
H       0.7047   0.8221   0.5736     H
H       0.7047   0.9264   0.3221     H
H       0.7047   0.9264   0.6779     H
Cr       0.714  0.02456  0.47544    Cr
Cr       0.714  0.02456  0.52456    Cr
Cr       0.714  0.47544  0.02456    Cr
Cr       0.714  0.47544  0.97544    Cr
Cr       0.714  0.52456  0.02456    Cr
Cr       0.714  0.52456  0.97544    Cr
Cr       0.714  0.97544  0.47544    Cr
Cr       0.714  0.97544  0.52456    Cr
C      0.72474  0.02945  0.27526     C
C      0.72474  0.02945  0.72474     C
C      0.72474  0.22474  0.47055     C
C      0.72474  0.22474  0.52945     C
C      0.72474  0.27526  0.02945     C
C      0.72474  0.27526  0.97055     C
C      0.72474  0.47055  0.22474     C
C      0.72474  0.47055  0.77526     C
C      0.72474  0.52945  0.22474     C
C      0.72474  0.52945  0.77526     C
C      0.72474  0.72474  0.02945     C
C      0.72474  0.72474  0.97055     C
C      0.72474  0.77526  0.47055     C
C      0.72474  0.77526  0.52945     C
C      0.72474  0.97055  0.27526     C
C      0.72474  0.97055  0.72474     C
H       0.7314   0.0703    0.429     H
H       0.7314   0.0703    0.571     H
H       0.7314    0.429   0.0703     H
H       0.7314    0.429   0.9297     H
H       0.7314   0.5703    0.071     H
H       0.7314   0.5703    0.929     H
H       0.7314    0.929   0.4297     H
H       0.7314    0.929   0.5703     H
H        0.733   0.0496    0.267     H
H        0.733   0.0496    0.733     H
H        0.733    0.233   0.4504     H
H        0.733    0.233   0.5496     H
H        0.733    0.267   0.0496     H
H        0.733    0.267   0.9504     H
H        0.733   0.4504    0.233     H
H        0.733   0.4504    0.767     H
H        0.733   0.5496    0.233     H
H        0.733   0.5496    0.767     H
H        0.733    0.733   0.0496     H
H        0.733    0.733   0.9504     H
H        0.733    0.767   0.4504     H
H        0.733    0.767   0.5496     H
H        0.733   0.9504    0.267     H
H        0.733   0.9504    0.733     H
C      0.73676      0.0  0.26324     C
C      0.73676      0.0  0.73676     C
C      0.73676  0.23676      0.5     C
C      0.73676  0.26324      0.0     C
C      0.73676      0.5  0.23676     C
C      0.73676      0.5  0.76324     C
C      0.73676  0.73676      0.0     C
C      0.73676  0.76324      0.5     C
O       0.7446   0.0592   0.4408     O
O       0.7446   0.0592   0.5592     O
O       0.7446   0.4408   0.0592     O
O       0.7446   0.4408   0.9408     O
O       0.7446   0.5592   0.0592     O
O       0.7446   0.5592   0.9408     O
O       0.7446   0.9408   0.4408     O
O       0.7446   0.9408   0.5592     O
H       0.7481   0.0157   0.0235     H
H       0.7481   0.0157   0.9765     H
H       0.7481   0.0235   0.0157     H
H       0.7481   0.0235   0.9843     H
H       0.7481   0.4765   0.4843     H
H       0.7481   0.4765   0.5157     H
H       0.7481   0.4843   0.4765     H
H       0.7481   0.4843   0.5235     H
H       0.7481   0.5157   0.4765     H
H       0.7481   0.5157   0.5235     H
H       0.7481   0.5235   0.4843     H
H       0.7481   0.5235   0.5157     H
H       0.7481   0.9765   0.0157     H
H       0.7481   0.9765   0.9843     H
H       0.7481   0.9843   0.0235     H
H       0.7481   0.9843   0.9765     H
O       0.7496      0.0    0.463     O
O       0.7496      0.0    0.537     O
O       0.7496    0.037      0.5     O
O       0.7496    0.463      0.0     O
O       0.7496      0.5    0.037     O
O       0.7496      0.5    0.963     O
O       0.7496    0.537      0.0     O
O       0.7496    0.963      0.5     O
O       0.7504      0.0    0.037     O
O       0.7504      0.0    0.963     O
O       0.7504    0.037      0.0     O
O       0.7504    0.463      0.5     O
O       0.7504      0.5    0.463     O
O       0.7504      0.5    0.537     O
O       0.7504    0.537      0.5     O
O       0.7504    0.963      0.0     O
H       0.7519   0.0157   0.4765     H
H       0.7519   0.0157   0.5235     H
H       0.7519   0.0235   0.4843     H
H       0.7519   0.0235   0.5157     H
H       0.7519   0.4765   0.0157     H
H       0.7519   0.4765   0.9843     H
H       0.7519   0.4843   0.0235     H
H       0.7519   0.4843   0.9765     H
H       0.7519   0.5157   0.0235     H
H       0.7519   0.5157   0.9765     H
H       0.7519   0.5235   0.0157     H
H       0.7519   0.5235   0.9843     H
H       0.7519   0.9765   0.4843     H
H       0.7519   0.9765   0.5157     H
H       0.7519   0.9843   0.4765     H
H       0.7519   0.9843   0.5235     H
O       0.7554   0.0592   0.0592     O
O       0.7554   0.0592   0.9408     O
O       0.7554   0.4408   0.4408     O
O       0.7554   0.4408   0.5592     O
O       0.7554   0.5592   0.4408     O
O       0.7554   0.5592   0.5592     O
O       0.7554   0.9408   0.0592     O
O       0.7554   0.9408   0.9408     O
C      0.76324      0.0  0.23676     C
C      0.76324      0.0  0.76324     C
C      0.76324  0.23676      0.0     C
C      0.76324  0.26324      0.5     C
C      0.76324      0.5  0.26324     C
C      0.76324      0.5  0.73676     C
C      0.76324  0.73676      0.5     C
C      0.76324  0.76324      0.0     C
H        0.767   0.0496    0.233     H
H        0.767   0.0496    0.767     H
H        0.767    0.233   0.0496     H
H        0.767    0.233   0.9504     H
H        0.767    0.267   0.4504     H
H        0.767    0.267   0.5496     H
H        0.767   0.4504    0.267     H
H        0.767   0.4504    0.733     H
H        0.767   0.5496    0.267     H
H        0.767   0.5496    0.733     H
H        0.767    0.733   0.4504     H
H        0.767    0.733   0.5496     H
H        0.767    0.767   0.0496     H
H        0.767    0.767   0.9504     H
H        0.767   0.9504    0.233     H
H        0.767   0.9504    0.767     H
H       0.7686   0.0703    0.071     H
H       0.7686   0.0703    0.929     H
H       0.7686    0.429   0.4297     H
H       0.7686    0.429   0.5703     H
H       0.7686   0.5703    0.429     H
H       0.7686   0.5703    0.571     H
H       0.7686    0.929   0.0703     H
H       0.7686    0.929   0.9297     H
C      0.77526  0.02945  0.22474     C
C      0.77526  0.02945  0.77526     C
C      0.77526  0.22474  0.02945     C
C      0.77526  0.22474  0.97055     C
C      0.77526  0.27526  0.47055     C
C      0.77526  0.27526  0.52945     C
C      0.77526  0.47055  0.27526     C
C      0.77526  0.47055  0.72474     C
C      0.77526  0.52945  0.27526     C
C      0.77526  0.52945  0.72474     C
C      0.77526  0.72474  0.47055     C
C      0.77526  0.72474  0.52945     C
C      0.77526  0.77526  0.02945     C
C      0.77526  0.77526  0.97055     C
C      0.77526  0.97055  0.22474     C
C      0.77526  0.97055  0.77526     C
Cr       0.786  0.02456  0.02456    Cr
Cr       0.786  0.02456  0.97544    Cr
Cr       0.786  0.47544  0.47544    Cr
Cr       0.786  0.47544  0.52456    Cr
Cr       0.786  0.52456  0.47544    Cr
Cr       0.786  0.52456  0.52456    Cr
Cr       0.786  0.97544  0.02456    Cr
Cr       0.786  0.97544  0.97544    Cr
H       0.7951   0.0735   0.1775     H
H       0.7951   0.0735   0.8225     H
H       0.7951   0.1775   0.0735     H
H       0.7951   0.1775   0.9265     H
H       0.7951   0.3225   0.4265     H
H       0.7951   0.3225   0.5735     H
H       0.7951   0.4265   0.3225     H
H       0.7951   0.4265   0.6775     H
H       0.7951   0.5735   0.3225     H
H       0.7951   0.5735   0.6775     H
H       0.7951   0.6775   0.4265     H
H       0.7951   0.6775   0.5735     H
H       0.7951   0.8225   0.0735     H
H       0.7951   0.8225   0.9265     H
H       0.7951   0.9265   0.1775     H
H       0.7951   0.9265   0.8225     H
C      0.79931  0.02945  0.20069     C
C      0.79931  0.02945  0.79931     C
C      0.79931  0.20069  0.02945     C
C      0.79931  0.20069  0.97055     C
C      0.79931  0.29931  0.47055     C
C      0.79931  0.29931  0.52945     C
C      0.79931  0.47055  0.29931     C
C      0.79931  0.47055  0.70069     C
C      0.79931  0.52945  0.29931     C
C      0.79931  0.52945  0.70069     C
C      0.79931  0.70069  0.47055     C
C      0.79931  0.70069  0.52945     C
C      0.79931  0.79931  0.02945     C
C      0.79931  0.79931  0.97055     C
C      0.79931  0.97055  0.20069     C
C      0.79931  0.97055  0.79931     C
H        0.806      0.0   0.1239     H
H        0.806      0.0   0.8761     H
H        0.806   0.1239      0.0     H
H        0.806   0.3761      0.5     H
H        0.806      0.5   0.3761     H
H        0.806      0.5   0.6239     H
H        0.806   0.6239      0.5     H
H        0.806   0.8761      0.0     H
C      0.81133      0.0  0.18867     C
C      0.81133      0.0  0.81133     C
C      0.81133  0.18867      0.0     C
C      0.81133  0.31133      0.5     C
C      0.81133      0.5  0.31133     C
C      0.81133      0.5  0.68867     C
C      0.81133  0.68867      0.5     C
C      0.81133  0.81133      0.0     C
O      0.81266      0.0  0.06332     O
O      0.81266      0.0  0.93668     O
O      0.81266  0.06332      0.0     O
O      0.81266  0.43668      0.5     O
O      0.81266      0.5  0.43668     O
O      0.81266      0.5  0.56332     O
O      0.81266  0.56332      0.5     O
O      0.81266  0.93668      0.0     O
C      0.81268  0.06112  0.18732     C
C      0.81268  0.06112  0.81268     C
C      0.81268  0.18732  0.06112     C
C      0.81268  0.18732  0.93888     C
C      0.81268  0.31268  0.43888     C
C      0.81268  0.31268  0.56112     C
C      0.81268  0.43888  0.31268     C
C      0.81268  0.43888  0.68732     C
C      0.81268  0.56112  0.31268     C
C      0.81268  0.56112  0.68732     C
C      0.81268  0.68732  0.43888     C
C      0.81268  0.68732  0.56112     C
C      0.81268  0.81268  0.06112     C
C      0.81268  0.81268  0.93888     C
C      0.81268  0.93888  0.18732     C
C      0.81268  0.93888  0.81268     C
O       0.8132      0.0      0.0     O
O       0.8132      0.5      0.5     O
H       0.8221   0.0736   0.2047     H
H       0.8221   0.0736   0.7953     H
H       0.8221   0.2047   0.0736     H
H       0.8221   0.2047   0.9264     H
H       0.8221   0.2953   0.4264     H
H       0.8221   0.2953   0.5736     H
H       0.8221   0.4264   0.2953     H
H       0.8221   0.4264   0.7047     H
H       0.8221   0.5736   0.2953     H
H       0.8221   0.5736   0.7047     H
H       0.8221   0.7047   0.4264     H
H       0.8221   0.7047   0.5736     H
H       0.8221   0.7953   0.0736     H
H       0.8221   0.7953   0.9264     H
H       0.8221   0.9264   0.2047     H
H       0.8221   0.9264   0.7953     H
C      0.82847      0.0  0.12989     C
C      0.82847      0.0  0.87011     C
C      0.82847  0.12989      0.0     C
C      0.82847  0.37011      0.5     C
C      0.82847      0.5  0.37011     C
C      0.82847      0.5  0.62989     C
C      0.82847  0.62989      0.5     C
C      0.82847  0.87011      0.0     C
H       0.8287   0.0567    0.171     H
H       0.8287   0.0567    0.829     H
H       0.8287    0.171   0.0567     H
H       0.8287    0.171   0.9433     H
H       0.8287    0.329   0.4433     H
H       0.8287    0.329   0.5567     H
H       0.8287   0.4433    0.329     H
H       0.8287   0.4433    0.671     H
H       0.8287   0.5567    0.329     H
H       0.8287   0.5567    0.671     H
H       0.8287    0.671   0.4433     H
H       0.8287    0.671   0.5567     H
H       0.8287    0.829   0.0567     H
H       0.8287    0.829   0.9433     H
H       0.8287   0.9433    0.171     H
H       0.8287   0.9433    0.829     H
C      0.83726      0.0  0.16274     C
C      0.83726      0.0  0.83726     C
C      0.83726  0.16274      0.0     C
C      0.83726  0.33726      0.5     C
C      0.83726      0.5  0.33726     C
C      0.83726      0.5  0.66274     C
C      0.83726  0.66274      0.5     C
C      0.83726  0.83726      0.0     C
C      0.84312      0.0  0.07021     C
C      0.84312      0.0  0.92979     C
C      0.84312  0.07021      0.0     C
C      0.84312  0.42979      0.5     C
C      0.84312      0.5  0.42979     C
C      0.84312      0.5  0.57021     C
C      0.84312  0.57021      0.5     C
C      0.84312  0.92979      0.0     C
C      0.85253      0.0  0.10586     C
C      0.85253      0.0  0.89414     C
C      0.85253  0.10586      0.0     C
C      0.85253  0.39414      0.5     C
C      0.85253      0.5  0.39414     C
C      0.85253      0.5  0.60586     C
C      0.85253  0.60586      0.5     C
C      0.85253  0.89414      0.0     C
Cr      0.8625      0.0      0.0    Cr
Cr      0.8625      0.5      0.5    Cr
O       0.8651      0.0  0.04806     O
O       0.8651      0.0  0.95194     O
O       0.8651  0.04806      0.0     O
O       0.8651  0.45194      0.5     O
O       0.8651      0.5  0.45194     O
O       0.8651      0.5  0.54806     O
O       0.8651  0.54806      0.5     O
O       0.8651  0.95194      0.0     O
C      0.87011      0.0  0.17153     C
C      0.87011      0.0  0.82847     C
C      0.87011  0.17153      0.0     C
C      0.87011  0.32847      0.5     C
C      0.87011      0.5  0.32847     C
C      0.87011      0.5  0.67153     C
C      0.87011  0.67153      0.5     C
C      0.87011  0.82847      0.0     C
H       0.8761      0.0    0.194     H
H       0.8761      0.0    0.806     H
H       0.8761    0.194      0.0     H
H       0.8761    0.306      0.5     H
H       0.8761      0.5    0.306     H
H       0.8761      0.5    0.694     H
H       0.8761    0.694      0.5     H
H       0.8761    0.806      0.0     H
C      0.88537      0.0  0.11463     C
C      0.88537      0.0  0.88537     C
C      0.88537  0.11463      0.0     C
C      0.88537  0.38537      0.5     C
C      0.88537      0.5  0.38537     C
C      0.88537      0.5  0.61463     C
C      0.88537  0.61463      0.5     C
C      0.88537  0.88537      0.0     C
C      0.89414      0.0  0.14747     C
C      0.89414      0.0  0.85253     C
C      0.89414  0.14747      0.0     C
C      0.89414  0.35253      0.5     C
C      0.89414      0.5  0.35253     C
C      0.89414      0.5  0.64747     C
C      0.89414  0.64747      0.5     C
C      0.89414  0.85253      0.0     C
H       0.9018      0.0   0.0982     H
H       0.9018      0.0   0.9018     H
H       0.9018   0.0982      0.0     H
H       0.9018   0.4018      0.5     H
H       0.9018      0.5   0.4018     H
H       0.9018      0.5   0.5982     H
H       0.9018   0.5982      0.5     H
H       0.9018   0.9018      0.0     H
O       0.9123      0.0      0.0     O
O       0.9123      0.5      0.5     O
H       0.9191      0.0   0.0194     H
H       0.9191      0.0   0.9806     H
H       0.9191   0.0194      0.0     H
H       0.9191   0.4806      0.5     H
H       0.9191      0.5   0.4806     H
H       0.9191      0.5   0.5194     H
H       0.9191   0.5194      0.5     H
H       0.9191   0.9806      0.0     H
H       0.9264   0.1779   0.2047     H
H       0.9264   0.1779   0.7953     H
H       0.9264   0.2047   0.1779     H
H       0.9264   0.2047   0.8221     H
H       0.9264   0.2953   0.3221     H
H       0.9264   0.2953   0.6779     H
H       0.9264   0.3221   0.2953     H
H       0.9264   0.3221   0.7047     H
H       0.9264   0.6779   0.2953     H
H       0.9264   0.6779   0.7047     H
H       0.9264   0.7047   0.3221     H
H       0.9264   0.7047   0.6779     H
H       0.9264   0.7953   0.1779     H
H       0.9264   0.7953   0.8221     H
H       0.9264   0.8221   0.2047     H
H       0.9264   0.8221   0.7953     H
H        0.929   0.0703   0.2314     H
H        0.929   0.0703   0.7686     H
H        0.929   0.2314   0.0703     H
H        0.929   0.2314   0.9297     H
H        0.929   0.2686   0.4297     H
H        0.929   0.2686   0.5703     H
H        0.929   0.4297   0.2686     H
H        0.929   0.4297   0.7314     H
H        0.929   0.5703   0.2686     H
H        0.929   0.5703   0.7314     H
H        0.929   0.7314   0.4297     H
H        0.929   0.7314   0.5703     H
H        0.929   0.7686   0.0703     H
H        0.929   0.7686   0.9297     H
H        0.929   0.9297   0.2314     H
H        0.929   0.9297   0.7686     H
C      0.92979      0.0  0.15688     C
C      0.92979      0.0  0.84312     C
C      0.92979  0.15688      0.0     C
C      0.92979  0.34312      0.5     C
C      0.92979      0.5  0.34312     C
C      0.92979      0.5  0.65688     C
C      0.92979  0.65688      0.5     C
C      0.92979  0.84312      0.0     C
O      0.93668      0.0  0.18734     O
O      0.93668      0.0  0.81266     O
O      0.93668  0.18734      0.0     O
O      0.93668  0.31266      0.5     O
O      0.93668      0.5  0.31266     O
O      0.93668      0.5  0.68734     O
O      0.93668  0.68734      0.5     O
O      0.93668  0.81266      0.0     O
C      0.93888  0.18732  0.18732     C
C      0.93888  0.18732  0.81268     C
C      0.93888  0.31268  0.31268     C
C      0.93888  0.31268  0.68732     C
C      0.93888  0.68732  0.31268     C
C      0.93888  0.68732  0.68732     C
C      0.93888  0.81268  0.18732     C
C      0.93888  0.81268  0.81268     C
O       0.9408   0.0592   0.2446     O
O       0.9408   0.0592   0.7554     O
O       0.9408   0.2446   0.0592     O
O       0.9408   0.2446   0.9408     O
O       0.9408   0.2554   0.4408     O
O       0.9408   0.2554   0.5592     O
O       0.9408   0.4408   0.2554     O
O       0.9408   0.4408   0.7446     O
O       0.9408   0.5592   0.2554     O
O       0.9408   0.5592   0.7446     O
O       0.9408   0.7446   0.4408     O
O       0.9408   0.7446   0.5592     O
O       0.9408   0.7554   0.0592     O
O       0.9408   0.7554   0.9408     O
O       0.9408   0.9408   0.2446     O
O       0.9408   0.9408   0.7554     O
H       0.9433    0.171   0.1713     H
H       0.9433    0.171   0.8287     H
H       0.9433   0.3287    0.329     H
H       0.9433   0.3287    0.671     H
H       0.9433    0.671   0.3287     H
H       0.9433    0.671   0.6713     H
H       0.9433   0.8287    0.171     H
H       0.9433   0.8287    0.829     H
H       0.9504    0.233    0.233     H
H       0.9504    0.233    0.767     H
H       0.9504    0.267    0.267     H
H       0.9504    0.267    0.733     H
H       0.9504    0.733    0.267     H
H       0.9504    0.733    0.733     H
H       0.9504    0.767    0.233     H
H       0.9504    0.767    0.767     H
O      0.95194      0.0   0.1349     O
O      0.95194      0.0   0.8651     O
O      0.95194   0.1349      0.0     O
O      0.95194   0.3651      0.5     O
O      0.95194      0.5   0.3651     O
O      0.95194      0.5   0.6349     O
O      0.95194   0.6349      0.5     O
O      0.95194   0.8651      0.0     O
O        0.963      0.0   0.2496     O
O        0.963      0.0   0.7504     O
O        0.963   0.2496      0.0     O
O        0.963   0.2504      0.5     O
O        0.963      0.5   0.2504     O
O        0.963      0.5   0.7496     O
O        0.963   0.7496      0.5     O
O        0.963   0.7504      0.0     O
C      0.97055  0.20069  0.20069     C
C      0.97055  0.20069  0.79931     C
C      0.97055  0.22474  0.22474     C
C      0.97055  0.22474  0.77526     C
C      0.97055  0.27526  0.27526     C
C      0.97055  0.27526  0.72474     C
C      0.97055  0.29931  0.29931     C
C      0.97055  0.29931  0.70069     C
C      0.97055  0.70069  0.29931     C
C      0.97055  0.70069  0.70069     C
C      0.97055  0.72474  0.27526     C
C      0.97055  0.72474  0.72474     C
C      0.97055  0.77526  0.22474     C
C      0.97055  0.77526  0.77526     C
C      0.97055  0.79931  0.20069     C
C      0.97055  0.79931  0.79931     C
Cr     0.97544  0.02456    0.214    Cr
Cr     0.97544  0.02456    0.786    Cr
Cr     0.97544    0.214  0.02456    Cr
Cr     0.97544    0.214  0.97544    Cr
Cr     0.97544    0.286  0.47544    Cr
Cr     0.97544    0.286  0.52456    Cr
Cr     0.97544  0.47544    0.286    Cr
Cr     0.97544  0.47544    0.714    Cr
Cr     0.97544  0.52456    0.286    Cr
Cr     0.97544  0.52456    0.714    Cr
Cr     0.97544    0.714  0.47544    Cr
Cr     0.97544    0.714  0.52456    Cr
Cr     0.97544    0.786  0.02456    Cr
Cr     0.97544    0.786  0.97544    Cr
Cr     0.97544  0.97544    0.214    Cr
Cr     0.97544  0.97544    0.786    Cr
H       0.9765   0.0157   0.2519     H
H       0.9765   0.0157   0.7481     H
H       0.9765   0.2481   0.4843     H
H       0.9765   0.2481   0.5157     H
H       0.9765   0.2519   0.0157     H
H       0.9765   0.2519   0.9843     H
H       0.9765   0.4843   0.2481     H
H       0.9765   0.4843   0.7519     H
H       0.9765   0.5157   0.2481     H
H       0.9765   0.5157   0.7519     H
H       0.9765   0.7481   0.0157     H
H       0.9765   0.7481   0.9843     H
H       0.9765   0.7519   0.4843     H
H       0.9765   0.7519   0.5157     H
H       0.9765   0.9843   0.2519     H
H       0.9765   0.9843   0.7481     H
H       0.9806      0.0   0.0809     H
H       0.9806      0.0   0.9191     H
H       0.9806   0.0809      0.0     H
H       0.9806   0.4191      0.5     H
H       0.9806      0.5   0.4191     H
H       0.9806      0.5   0.5809     H
H       0.9806   0.5809      0.5     H
H       0.9806   0.9191      0.0     H
H       0.9843   0.0235   0.2519     H
H       0.9843   0.0235   0.7481     H
H       0.9843   0.2481   0.4765     H
H       0.9843   0.2481   0.5235     H
H       0.9843   0.2519   0.0235     H
H       0.9843   0.2519   0.9765     H
H       0.9843   0.4765   0.2481     H
H       0.9843   0.4765   0.7519     H
H       0.9843   0.5235   0.2481     H
H       0.9843   0.5235   0.7519     H
H       0.9843   0.7481   0.0235     H
H       0.9843   0.7481   0.9765     H
H       0.9843   0.7519   0.4765     H
H       0.9843   0.7519   0.5235     H
H       0.9843   0.9765   0.2519     H
H       0.9843   0.9765   0.7481     H
