data_I
_chemical_name_common  '/home/zhangsd/repos/MofS-CGCNN/CGCNN_MT/data/WS24v2_external_test/clean_cifs/val_47'
_cell_length_a 26.93850
_cell_length_b 27.83560
_cell_length_c 32.10360
_cell_angle_alpha 90.00000
_cell_angle_beta  114.72300
_cell_angle_gamma 90.00000
_space_group_name_H-M_alt      'P 1'


loop_
_space_group_symop_operation_xyz
  'x, y, z' 

loop_
_atom_site_label
_atom_site_fract_x
_atom_site_fract_y
_atom_site_fract_z
_atom_site_type_symbol
H       0.0027   0.1938   0.9241     H
H       0.0027   0.8062   0.4241     H
O      0.00272  0.09142   0.4966     O
O      0.00272  0.90862   0.9966     O
C      0.00854  0.12494  0.98392     C
C      0.00854  0.87514  0.48392     C
O      0.01436  0.03836  0.41222     O
O      0.01436  0.96164  0.91222     O
C      0.01464  0.16644  0.59202     C
C      0.01464  0.83364  0.09202     C
C      0.01564  0.12494  0.56762     C
C      0.01564  0.87514  0.06762     C
O      0.01782  0.22642  0.06511     O
O      0.01782  0.77362  0.56511     O
O      0.01802  0.09472  0.36372     O
O      0.01802  0.90532  0.86372     O
O      0.01812  0.19412  0.38902     O
O      0.01812  0.80592  0.88902     O
C      0.01864  0.22234  0.42084     C
C      0.01864  0.77774  0.92084     C
C      0.02434  0.05144  0.37894     C
C      0.02434  0.94864  0.87894     C
Zn      0.0317  0.07379  0.06689    Zn
Zn      0.0317  0.92621  0.56689    Zn
Zn     0.03609  0.14521  0.14484    Zn
Zn     0.03609  0.85479  0.64484    Zn
C      0.03844  0.16764  0.63912     C
C      0.03844  0.83244  0.13912     C
H       0.0387   0.1956    0.655     H
H       0.0387   0.8044    0.155     H
H       0.0402    0.057   0.3035     H
H       0.0402    0.943   0.8035     H
C      0.04084  0.08434  0.59122     C
C      0.04084  0.91574  0.09122     C
O      0.04192  0.16032  0.00339     O
O      0.04192  0.83972  0.50339     O
H       0.0431   0.0571   0.5753     H
H       0.0431   0.9429   0.0753     H
H        0.045   0.2885   0.4846     H
H        0.045   0.7115   0.9846     H
C      0.04684  0.01524  0.35702     C
C      0.04684  0.98484  0.85702     C
H       0.0482    0.067    0.722     H
H       0.0482    0.933    0.222     H
C      0.04974  0.02644  0.31592     C
C      0.04974  0.97364  0.81592     C
H       0.0571   0.0384   0.9015     H
H       0.0571   0.9616   0.4015     H
C      0.06014  0.03034  0.87452     C
C      0.06014  0.96974  0.37452     C
C      0.06284  0.08394  0.63852     C
C      0.06284  0.12464  0.66282     C
C      0.06284  0.87544  0.16282     C
C      0.06284  0.91614  0.13852     C
C      0.06624  0.00684  0.79412     C
C      0.06624  0.99324  0.29412     C
H       0.0678   0.0015   0.2666     H
H       0.0678   0.9985   0.7666     H
C      0.06854  0.25314  0.44224     C
C      0.06854  0.74694  0.94224     C
Zn      0.0719  0.17984  0.06699    Zn
Zn      0.0719  0.82016  0.56699    Zn
O       0.0724   0.1261  0.10495     O
O       0.0724   0.8739  0.60495     O
C      0.07354  0.09054  0.73812     C
C      0.07354  0.90954  0.23812     C
C      0.07384  0.28504  0.47604     C
C      0.07384  0.71504  0.97604     C
C      0.07744  0.06382  0.85282     C
C      0.07744  0.93622  0.35282     C
H       0.0779   0.0557   0.6541     H
H       0.0779   0.9443   0.1541     H
C      0.08104  0.05324  0.81122     C
C      0.08104  0.94684  0.31122     C
O      0.08382  0.02645  0.06846     O
O      0.08382  0.97355  0.56846     O
H       0.0868   0.0308   0.5095     H
H       0.0868   0.9692   0.0095     H
H       0.0871   0.1172   0.2796     H
H       0.0871   0.8828   0.7796     H
H       0.0872   0.0942   0.8656     H
H       0.0872   0.9058   0.3656     H
C      0.08774  0.12494  0.71522     C
C      0.08774  0.87514  0.21522     C
O      0.08844  0.11197  0.20322     O
O      0.08844  0.88817  0.70322     O
C      0.09744  0.09054  0.78642     C
C      0.09744  0.90954  0.28642     C
H       0.1112   0.2313   0.4063     H
H       0.1112   0.7687   0.9063     H
C      0.11264  0.25164  0.42984     C
C      0.11264  0.74844  0.92984     C
C      0.11965  0.31224  0.49794     C
C      0.11965  0.68784  0.99794     C
H         0.12   0.0846   0.4755     H
H         0.12   0.9154   0.9755     H
H       0.1205   0.1257   0.3583     H
H       0.1205   0.8743   0.8583     H
H       0.1218   0.3327   0.5214     H
H       0.1218   0.6673   0.0214     H
C      0.12424  0.15994  0.73922     C
C      0.12424  0.84014  0.23922     C
C      0.12444  0.03574  0.52182     C
C      0.12444  0.96434  0.02182     C
C      0.12485  0.11875  0.29664     C
C      0.12485  0.88135  0.79664     C
H        0.133   0.1839   0.7232     H
H        0.133   0.8161   0.2232     H
C      0.13404  0.02424  0.08302     C
C      0.13404  0.97584  0.58302     C
C      0.13484  0.12454  0.80902     C
C      0.13484  0.87554  0.30902     C
C      0.13818  0.10747  0.22404     C
C      0.13818  0.89267  0.72404     C
O      0.14132   0.2126  0.09057     O
O      0.14132   0.7874  0.59057     O
C      0.14394  0.06714  0.50054     C
C      0.14394  0.93294  0.00054     C
C      0.14475  0.12364  0.34454     C
C      0.14475  0.87644  0.84454     C
Zn     0.14613  0.10599  0.14087    Zn
Zn     0.14613  0.89401  0.64087    Zn
C      0.14784  0.16044  0.78592     C
C      0.14784  0.83964  0.28592     C
H        0.152   0.1237   0.8409     H
H        0.152   0.8763   0.3409     H
H       0.1567   0.2528   0.7685     H
H       0.1567   0.7472   0.2685     H
C      0.15677  0.11605  0.27404     C
C      0.15677  0.88405  0.77404     C
C      0.15764  0.00954  0.56222     C
C      0.15764  0.99054  0.06222     C
C      0.15895  0.28065  0.45264     C
C      0.15895  0.71945  0.95264     C
C      0.16325  0.30934  0.48524     C
C      0.16325  0.69074  0.98524     C
O      0.16632  0.04948  0.11503     O
O      0.16632  0.95052  0.61503     O
H        0.169   0.0847   0.4288     H
H        0.169   0.9153   0.9288     H
O      0.16904  0.10204  0.20592     O
O      0.16904  0.89804  0.70592     O
C      0.18534  0.19664  0.12354     C
C      0.18534  0.80344  0.62354     C
C      0.18664  0.24424  0.79534     C
C      0.18664  0.75584  0.29534     C
H       0.1876   0.2788   0.4437     H
H       0.1876   0.7212   0.9437     H
C      0.18974  0.19764  0.81102     C
C      0.18974  0.80244  0.31102     C
O      0.19452  0.15502  0.13872     O
O      0.19452  0.84502  0.63872     O
H       0.1965   0.2885   0.0994     H
H       0.1965   0.7115   0.5994     H
C      0.19894  0.10454  0.44434     C
C      0.19894  0.89554  0.94434     C
C      0.19915  0.12544  0.37024     C
C      0.19915  0.87464  0.87024     C
C      0.19974  0.07324  0.51604     C
C      0.19974  0.92684  0.01604     C
C      0.21214  0.01784  0.57834     C
C      0.21214  0.98224  0.07834     C
C      0.21284  0.33724  0.50834     C
C      0.21284  0.66284  0.00834     C
C      0.21425  0.11525  0.30074     C
C      0.21425  0.88485  0.80074     C
H       0.2186   0.3228   0.5733     H
H       0.2186   0.6772   0.0733     H
H       0.2189   0.3624   0.4532     H
H       0.2189   0.6376   0.9532     H
H       0.2204   0.3092   0.8055     H
H       0.2204   0.6908   0.3055     H
C      0.22074  0.13074  0.41964     C
C      0.22074  0.86934  0.91964     C
C      0.22084  0.10714  0.49244     C
C      0.22084  0.89294  0.99244     C
C      0.22484  0.27804  0.81684     C
C      0.22484  0.72204  0.31684     C
C      0.22584  0.28064  0.12682     C
C      0.22584  0.71944  0.62682     C
H       0.2269   0.3772   0.6348     H
H       0.2269   0.6228   0.1348     H
C      0.22904  0.23454  0.14362     C
C      0.22904  0.76554  0.64362     C
H       0.2295   0.4447   0.4284     H
H       0.2295   0.5553   0.9284     H
C      0.23324  0.04914  0.55814     C
C      0.23324  0.95094  0.05814     C
C      0.23434  0.36374  0.48504     C
C      0.23434  0.63634  0.98504     C
C      0.23444  0.34024  0.55724     C
C      0.23444  0.65984  0.05724     C
C      0.23555  0.12135  0.34804     C
C      0.23555  0.87875  0.84804     C
H       0.2357   0.0013   0.6043     H
H       0.2357   0.9987   0.1043     H
C      0.23714  0.18554  0.85182     C
C      0.23714  0.81454  0.35182     C
H       0.2377   0.1106   0.2866     H
H       0.2377   0.8894   0.7866     H
H       0.2419   0.1543   0.8633     H
H       0.2419   0.8457   0.3633     H
H       0.2581   0.3457   0.1367     H
H       0.2581   0.6543   0.6367     H
H       0.2623   0.3894   0.7134     H
H       0.2623   0.6106   0.2134     H
C      0.26294  0.31454  0.14822     C
C      0.26294  0.68554  0.64822     C
H       0.2643   0.4987   0.3957     H
H       0.2643   0.5013   0.8957     H
C      0.26455  0.37875  0.65204     C
C      0.26455  0.62135  0.15204     C
C      0.26564  0.15984  0.44284     C
C      0.26564  0.84024  0.94284     C
C      0.26574  0.13634  0.51504     C
C      0.26574  0.86374  0.01504     C
C      0.26684  0.45094  0.44194     C
C      0.26684  0.54914  0.94194     C
H       0.2705   0.0553   0.5716     H
H       0.2705   0.9447   0.0716     H
C      0.27104  0.26554  0.85642     C
C      0.27104  0.73454  0.35642     C
H       0.2731   0.1228   0.3652     H
H       0.2731   0.8772   0.8652     H
C      0.27424  0.21944  0.87322     C
C      0.27424  0.78064  0.37322     C
C      0.27524  0.22204  0.18324     C
C      0.27524  0.77804  0.68324     C
C      0.27924  0.39294  0.50764     C
C      0.27924  0.60714  0.00764     C
C      0.27934  0.36934  0.58044     C
C      0.27934  0.63074  0.08044     C
H       0.2796   0.1908   0.1945     H
H       0.2796   0.8092   0.6945     H
H       0.2811   0.1376   0.5468     H
H       0.2811   0.8624   0.0468     H
H       0.2814   0.1772   0.4267     H
H       0.2814   0.8228   0.9267     H
C      0.28585  0.38485  0.69934     C
C      0.28585  0.61525  0.19934     C
C      0.28724  0.16284  0.49174     C
C      0.28724  0.83724  0.99174     C
C      0.28794  0.48224  0.42174     C
C      0.28794  0.51784  0.92174     C
C      0.30034  0.42684  0.48404     C
C      0.30034  0.57324  0.98404     C
C      0.30095  0.37464  0.62984     C
C      0.30095  0.62544  0.12984     C
C      0.30114  0.39554  0.55574     C
C      0.30114  0.60454  0.05574     C
H       0.3035   0.2115   0.9006     H
H       0.3035   0.7885   0.4006     H
O      0.30552  0.34502  0.86132     O
O      0.30552  0.65502  0.36132     O
C      0.31034  0.30244  0.18902     C
C      0.31034  0.69764  0.68902     C
H       0.3124   0.2212   0.5563     H
H       0.3124   0.7788   0.0563     H
C      0.31344  0.25584  0.20474     C
C      0.31344  0.74424  0.70474     C
C      0.31474  0.30344  0.87654     C
C      0.31474  0.69664  0.37654     C
H        0.331   0.4153   0.5712     H
H        0.331   0.5847   0.0712     H
O      0.33104  0.39804  0.79412     O
O      0.33104  0.60204  0.29412     O
O      0.33372  0.45052  0.88497     O
O      0.33372  0.54948  0.38497     O
C      0.33685  0.19074  0.51484     C
C      0.33685  0.80934  0.01484     C
C      0.34115  0.21945  0.54744     C
C      0.34115  0.78065  0.04744     C
C      0.34244  0.49054  0.43782     C
C      0.34244  0.50954  0.93782     C
H       0.3433   0.2472   0.2315     H
H       0.3433   0.7528   0.7315     H
C      0.34337  0.38405  0.72604     C
C      0.34337  0.61605  0.22604     C
H        0.348   0.3763   0.1591     H
H        0.348   0.6237   0.6591     H
C      0.35224  0.33964  0.21412     C
C      0.35224  0.66044  0.71412     C
Zn     0.35387  0.39401  0.85913    Zn
Zn     0.35387  0.60599  0.35913    Zn
C      0.35535  0.37644  0.65554     C
C      0.35535  0.62364  0.15554     C
C      0.35614  0.43294  0.49954     C
C      0.35614  0.56714  0.99954     C
O      0.35872   0.2874  0.90943     O
O      0.35872   0.7126  0.40943     O
C      0.36198  0.39267  0.77604     C
C      0.36198  0.60747  0.27604     C
C      0.36524  0.37554  0.19102     C
C      0.36524  0.62454  0.69102     C
C      0.36604  0.47584  0.91702     C
C      0.36604  0.52424  0.41702     C
H        0.367   0.3161   0.2768     H
H        0.367   0.6839   0.7768     H
C      0.37525  0.38135  0.70344     C
C      0.37525  0.61875  0.20344     C
C      0.37564  0.46434  0.47822     C
C      0.37564  0.53574  0.97822     C
C      0.37584  0.34014  0.26082     C
C      0.37584  0.65994  0.76082     C
H       0.3782   0.1673   0.4786     H
H       0.3782   0.8327   0.9786     H
H       0.3795   0.3743   0.6417     H
H       0.3795   0.6257   0.1417     H
H         0.38   0.4154   0.5245     H
H         0.38   0.5846   0.0245     H
C      0.38045  0.18784  0.50214     C
C      0.38045  0.81224  0.00214     C
C      0.38744  0.24844  0.57024     C
C      0.38744  0.75164  0.07024     C
H       0.3888   0.2687   0.5937     H
H       0.3888   0.7313   0.0937     H
C      0.40264  0.40954  0.21362     C
C      0.40264  0.59054  0.71362     C
O      0.41164  0.38817  0.79682     O
O      0.41164  0.61197  0.29682     O
C      0.41234  0.37514  0.28482     C
C      0.41234  0.62494  0.78482     C
H       0.4128   0.4058   0.1344     H
H       0.4128   0.5942   0.6344     H
H       0.4129   0.3828   0.7204     H
H       0.4129   0.6172   0.2204     H
H       0.4132   0.4692   0.4905     H
H       0.4132   0.5308   0.9905     H
O      0.41622  0.47355  0.93154     O
O      0.41622  0.52645  0.43154     O
C      0.41904  0.44684  0.18882     C
C      0.41904  0.55324  0.68882     C
H       0.4221   0.4443   0.3459     H
H       0.4221   0.5557   0.8459     H
C      0.42264  0.43622  0.14722     C
C      0.42264  0.56382  0.64722     C
C      0.42624  0.21504  0.52404     C
C      0.42624  0.78504  0.02404     C
C      0.42654  0.40954  0.26192     C
C      0.42654  0.59054  0.76192     C
O       0.4276   0.3739  0.89505     O
O       0.4276   0.6261  0.39505     O
Zn      0.4281  0.32016  0.93301    Zn
Zn      0.4281  0.67984  0.43301    Zn
C      0.43154  0.24694  0.55784     C
C      0.43154  0.75314  0.05784     C
H       0.4322   0.4985   0.7334     H
H       0.4322   0.5015   0.2334     H
C      0.43384  0.49324  0.20592     C
C      0.43384  0.50684  0.70592     C
C      0.43724  0.37544  0.33722     C
C      0.43724  0.41614  0.36152     C
C      0.43724  0.58394  0.86152     C
C      0.43724  0.62464  0.83722     C
C      0.43994  0.46974  0.12552     C
C      0.43994  0.53034  0.62552     C
H       0.4429   0.4616   0.0985     H
H       0.4429   0.5384   0.5985     H
C      0.45034  0.47364  0.68412     C
C      0.45034  0.52644  0.18412     C
H       0.4518    0.433    0.278     H
H       0.4518    0.567    0.778     H
C      0.45324  0.48484  0.64302     C
C      0.45324  0.51524  0.14302     C
H        0.455   0.2115   0.5154     H
H        0.455   0.7885   0.0154     H
H       0.4569   0.4429   0.4247     H
H       0.4569   0.5571   0.9247     H
O      0.45812  0.33972  0.99661     O
O      0.45812  0.66032  0.49661     O
C      0.45924  0.41574  0.40882     C
C      0.45924  0.58434  0.90882     C
H       0.4598    0.443   0.6965     H
H       0.4598    0.557   0.1965     H
H       0.4613   0.3044    0.345     H
H       0.4613   0.6956    0.845     H
C      0.46164  0.33244  0.36092     C
C      0.46164  0.66764  0.86092     C
Zn     0.46391  0.35479  0.85516    Zn
Zn     0.46391  0.64521  0.35516    Zn
Zn      0.4683  0.42621  0.93311    Zn
Zn      0.4683  0.57379  0.43311    Zn
C      0.47574  0.44864  0.62114     C
C      0.47574  0.55144  0.12114     C
C      0.48144  0.27774  0.57924     C
C      0.48144  0.72234  0.07924     C
O      0.48192  0.30592  0.61102     O
O      0.48192  0.69412  0.11102     O
O      0.48202  0.40532  0.63628     O
O      0.48202  0.59472  0.13628     O
O      0.48222  0.27362  0.93489     O
O      0.48222  0.72642  0.43489     O
C      0.48444  0.37514  0.43242     C
C      0.48444  0.62494  0.93242     C
C      0.48544  0.33364  0.40802     C
C      0.48544  0.66644  0.90802     C
O      0.48564  0.46164  0.58778     O
O      0.48564  0.53836  0.08778     O
C      0.49154  0.37514  0.01612     C
C      0.49154  0.62494  0.51612     C
H       0.4973   0.3062   0.0759     H
H       0.4973   0.6938   0.5759     H
O      0.49732  0.40862   0.5034     O
O      0.49732  0.59142   0.0034     O
H       0.5027   0.3062   0.4241     H
H       0.5027   0.6938   0.9241     H
O      0.50272  0.40862   0.9966     O
O      0.50272  0.59142   0.4966     O
C      0.50854  0.37514  0.48392     C
C      0.50854  0.62494  0.98392     C
O      0.51436  0.46164  0.91222     O
O      0.51436  0.53836  0.41222     O
C      0.51464  0.33364  0.09202     C
C      0.51464  0.66644  0.59202     C
C      0.51564  0.37514  0.06762     C
C      0.51564  0.62494  0.56762     C
O      0.51782  0.27362  0.56511     O
O      0.51782  0.72642  0.06511     O
O      0.51802  0.40532  0.86372     O
O      0.51802  0.59472  0.36372     O
O      0.51812  0.30592  0.88902     O
O      0.51812  0.69412  0.38902     O
C      0.51864  0.27774  0.92084     C
C      0.51864  0.72234  0.42084     C
C      0.52434  0.44864  0.87894     C
C      0.52434  0.55144  0.37894     C
Zn      0.5317  0.42621  0.56689    Zn
Zn      0.5317  0.57379  0.06689    Zn
Zn     0.53609  0.35479  0.64484    Zn
Zn     0.53609  0.64521  0.14484    Zn
C      0.53844  0.33244  0.13912     C
C      0.53844  0.66764  0.63912     C
H       0.5387   0.3044    0.155     H
H       0.5387   0.6956    0.655     H
H       0.5402    0.443   0.8035     H
H       0.5402    0.557   0.3035     H
C      0.54084  0.41574  0.09122     C
C      0.54084  0.58434  0.59122     C
O      0.54192  0.33972  0.50339     O
O      0.54192  0.66032  0.00339     O
H       0.5431   0.4429   0.0753     H
H       0.5431   0.5571   0.5753     H
H        0.545   0.2115   0.9846     H
H        0.545   0.7885   0.4846     H
C      0.54684  0.48484  0.85702     C
C      0.54684  0.51524  0.35702     C
H       0.5482    0.433    0.222     H
H       0.5482    0.567    0.722     H
C      0.54974  0.47364  0.81592     C
C      0.54974  0.52644  0.31592     C
H       0.5571   0.4616   0.4015     H
H       0.5571   0.5384   0.9015     H
C      0.56014  0.46974  0.37452     C
C      0.56014  0.53034  0.87452     C
C      0.56284  0.37544  0.16282     C
C      0.56284  0.41614  0.13852     C
C      0.56284  0.58394  0.63852     C
C      0.56284  0.62464  0.66282     C
C      0.56624  0.49324  0.29412     C
C      0.56624  0.50684  0.79412     C
H       0.5678   0.4985   0.7666     H
H       0.5678   0.5015   0.2666     H
C      0.56854  0.24694  0.94224     C
C      0.56854  0.75314  0.44224     C
Zn      0.5719  0.32016  0.56699    Zn
Zn      0.5719  0.67984  0.06699    Zn
O       0.5724   0.3739  0.60495     O
O       0.5724   0.6261  0.10495     O
C      0.57354  0.40954  0.23812     C
C      0.57354  0.59054  0.73812     C
C      0.57384  0.21504  0.97604     C
C      0.57384  0.78504  0.47604     C
C      0.57744  0.43622  0.35282     C
C      0.57744  0.56382  0.85282     C
H       0.5779   0.4443   0.1541     H
H       0.5779   0.5557   0.6541     H
C      0.58104  0.44684  0.31122     C
C      0.58104  0.55324  0.81122     C
O      0.58382  0.47355  0.56846     O
O      0.58382  0.52645  0.06846     O
H       0.5868   0.4692   0.0095     H
H       0.5868   0.5308   0.5095     H
H       0.5871   0.3828   0.7796     H
H       0.5871   0.6172   0.2796     H
H       0.5872   0.4058   0.3656     H
H       0.5872   0.5942   0.8656     H
C      0.58774  0.37514  0.21522     C
C      0.58774  0.62494  0.71522     C
O      0.58844  0.38817  0.70322     O
O      0.58844  0.61197  0.20322     O
C      0.59744  0.40954  0.28642     C
C      0.59744  0.59054  0.78642     C
H       0.6112   0.2687   0.9063     H
H       0.6112   0.7313   0.4063     H
C      0.61264  0.24844  0.92984     C
C      0.61264  0.75164  0.42984     C
C      0.61965  0.18784  0.99794     C
C      0.61965  0.81224  0.49794     C
H         0.62   0.4154   0.9755     H
H         0.62   0.5846   0.4755     H
H       0.6205   0.3743   0.8583     H
H       0.6205   0.6257   0.3583     H
H       0.6218   0.1673   0.0214     H
H       0.6218   0.8327   0.5214     H
C      0.62424  0.34014  0.23922     C
C      0.62424  0.65994  0.73922     C
C      0.62444  0.46434  0.02182     C
C      0.62444  0.53574  0.52182     C
C      0.62485  0.38135  0.79664     C
C      0.62485  0.61875  0.29664     C
H        0.633   0.3161   0.2232     H
H        0.633   0.6839   0.7232     H
C      0.63404  0.47584  0.58302     C
C      0.63404  0.52424  0.08302     C
C      0.63484  0.37554  0.30902     C
C      0.63484  0.62454  0.80902     C
C      0.63818  0.39267  0.72404     C
C      0.63818  0.60747  0.22404     C
O      0.64132   0.2874  0.59057     O
O      0.64132   0.7126  0.09057     O
C      0.64394  0.43294  0.00054     C
C      0.64394  0.56714  0.50054     C
C      0.64475  0.37644  0.84454     C
C      0.64475  0.62364  0.34454     C
Zn     0.64613  0.39401  0.64087    Zn
Zn     0.64613  0.60599  0.14087    Zn
C      0.64784  0.33964  0.28592     C
C      0.64784  0.66044  0.78592     C
H        0.652   0.3763   0.3409     H
H        0.652   0.6237   0.8409     H
H       0.6567   0.2472   0.2685     H
H       0.6567   0.7528   0.7685     H
C      0.65677  0.38405  0.77404     C
C      0.65677  0.61605  0.27404     C
C      0.65764  0.49054  0.06222     C
C      0.65764  0.50954  0.56222     C
C      0.65895  0.21945  0.95264     C
C      0.65895  0.78065  0.45264     C
C      0.66325  0.19074  0.98524     C
C      0.66325  0.80934  0.48524     C
O      0.66632  0.45052  0.61503     O
O      0.66632  0.54948  0.11503     O
H        0.669   0.4153   0.9288     H
H        0.669   0.5847   0.4288     H
O      0.66904  0.39804  0.70592     O
O      0.66904  0.60204  0.20592     O
C      0.68534  0.30344  0.62354     C
C      0.68534  0.69664  0.12354     C
C      0.68664  0.25584  0.29534     C
C      0.68664  0.74424  0.79534     C
H       0.6876   0.2212   0.9437     H
H       0.6876   0.7788   0.4437     H
C      0.68974  0.30244  0.31102     C
C      0.68974  0.69764  0.81102     C
O      0.69452  0.34502  0.63872     O
O      0.69452  0.65502  0.13872     O
H       0.6965   0.2115   0.5994     H
H       0.6965   0.7885   0.0994     H
C      0.69894  0.39554  0.94434     C
C      0.69894  0.60454  0.44434     C
C      0.69915  0.37464  0.87024     C
C      0.69915  0.62544  0.37024     C
C      0.69974  0.42684  0.01604     C
C      0.69974  0.57324  0.51604     C
C      0.71214  0.48224  0.07834     C
C      0.71214  0.51784  0.57834     C
C      0.71284  0.16284  0.00834     C
C      0.71284  0.83724  0.50834     C
C      0.71425  0.38485  0.80074     C
C      0.71425  0.61525  0.30074     C
H       0.7186   0.1772   0.0733     H
H       0.7186   0.8228   0.5733     H
H       0.7189   0.1376   0.9532     H
H       0.7189   0.8624   0.4532     H
H       0.7204   0.1908   0.3055     H
H       0.7204   0.8092   0.8055     H
C      0.72074  0.36934  0.91964     C
C      0.72074  0.63074  0.41964     C
C      0.72084  0.39294  0.99244     C
C      0.72084  0.60714  0.49244     C
C      0.72484  0.22204  0.31684     C
C      0.72484  0.77804  0.81684     C
C      0.72584  0.21944  0.62682     C
C      0.72584  0.78064  0.12682     C
H       0.7269   0.1228   0.1348     H
H       0.7269   0.8772   0.6348     H
C      0.72904  0.26554  0.64362     C
C      0.72904  0.73454  0.14362     C
H       0.7295   0.0553   0.9284     H
H       0.7295   0.9447   0.4284     H
C      0.73324  0.45094  0.05814     C
C      0.73324  0.54914  0.55814     C
C      0.73434  0.13634  0.98504     C
C      0.73434  0.86374  0.48504     C
C      0.73444  0.15984  0.05724     C
C      0.73444  0.84024  0.55724     C
C      0.73555  0.37875  0.84804     C
C      0.73555  0.62135  0.34804     C
H       0.7357   0.4987   0.1043     H
H       0.7357   0.5013   0.6043     H
C      0.73714  0.31454  0.35182     C
C      0.73714  0.68554  0.85182     C
H       0.7377   0.3894   0.7866     H
H       0.7377   0.6106   0.2866     H
H       0.7419   0.3457   0.3633     H
H       0.7419   0.6543   0.8633     H
H       0.7581   0.1543   0.6367     H
H       0.7581   0.8457   0.1367     H
H       0.7623   0.1106   0.2134     H
H       0.7623   0.8894   0.7134     H
C      0.76294  0.18554  0.64822     C
C      0.76294  0.81454  0.14822     C
H       0.7643   0.0013   0.8957     H
H       0.7643   0.9987   0.3957     H
C      0.76455  0.12135  0.15204     C
C      0.76455  0.87875  0.65204     C
C      0.76564  0.34024  0.94284     C
C      0.76564  0.65984  0.44284     C
C      0.76574  0.36374  0.01504     C
C      0.76574  0.63634  0.51504     C
C      0.76684  0.04914  0.94194     C
C      0.76684  0.95094  0.44194     C
H       0.7705   0.4447   0.0716     H
H       0.7705   0.5553   0.5716     H
C      0.77104  0.23454  0.35642     C
C      0.77104  0.76554  0.85642     C
H       0.7731   0.3772   0.8652     H
H       0.7731   0.6228   0.3652     H
C      0.77424  0.28064  0.37322     C
C      0.77424  0.71944  0.87322     C
C      0.77524  0.27804  0.68324     C
C      0.77524  0.72204  0.18324     C
C      0.77924  0.10714  0.00764     C
C      0.77924  0.89294  0.50764     C
C      0.77934  0.13074  0.08044     C
C      0.77934  0.86934  0.58044     C
H       0.7796   0.3092   0.6945     H
H       0.7796   0.6908   0.1945     H
H       0.7811   0.3624   0.0468     H
H       0.7811   0.6376   0.5468     H
H       0.7814   0.3228   0.9267     H
H       0.7814   0.6772   0.4267     H
C      0.78585  0.11525  0.19934     C
C      0.78585  0.88485  0.69934     C
C      0.78724  0.33724  0.99174     C
C      0.78724  0.66284  0.49174     C
C      0.78794  0.01784  0.92174     C
C      0.78794  0.98224  0.42174     C
C      0.80034  0.07324  0.98404     C
C      0.80034  0.92684  0.48404     C
C      0.80095  0.12544  0.12984     C
C      0.80095  0.87464  0.62984     C
C      0.80114  0.10454  0.05574     C
C      0.80114  0.89554  0.55574     C
H       0.8035   0.2885   0.4006     H
H       0.8035   0.7115   0.9006     H
O      0.80552  0.15502  0.36132     O
O      0.80552  0.84502  0.86132     O
C      0.81034  0.19764  0.68902     C
C      0.81034  0.80244  0.18902     C
H       0.8124   0.2788   0.0563     H
H       0.8124   0.7212   0.5563     H
C      0.81344  0.24424  0.70474     C
C      0.81344  0.75584  0.20474     C
C      0.81474  0.19664  0.37654     C
C      0.81474  0.80344  0.87654     C
H        0.831   0.0847   0.0712     H
H        0.831   0.9153   0.5712     H
O      0.83104  0.10204  0.29412     O
O      0.83104  0.89804  0.79412     O
O      0.83372  0.04948  0.38497     O
O      0.83372  0.95052  0.88497     O
C      0.83685  0.30934  0.01484     C
C      0.83685  0.69074  0.51484     C
C      0.84115  0.28065  0.04744     C
C      0.84115  0.71945  0.54744     C
C      0.84244  0.00954  0.93782     C
C      0.84244  0.99054  0.43782     C
H       0.8433   0.2528   0.7315     H
H       0.8433   0.7472   0.2315     H
C      0.84337  0.11605  0.22604     C
C      0.84337  0.88405  0.72604     C
H        0.848   0.1237   0.6591     H
H        0.848   0.8763   0.1591     H
C      0.85224  0.16044  0.71412     C
C      0.85224  0.83964  0.21412     C
Zn     0.85387  0.10599  0.35913    Zn
Zn     0.85387  0.89401  0.85913    Zn
C      0.85535  0.12364  0.15554     C
C      0.85535  0.87644  0.65554     C
C      0.85614  0.06714  0.99954     C
C      0.85614  0.93294  0.49954     C
O      0.85872   0.2126  0.40943     O
O      0.85872   0.7874  0.90943     O
C      0.86198  0.10747  0.27604     C
C      0.86198  0.89267  0.77604     C
C      0.86524  0.12454  0.69102     C
C      0.86524  0.87554  0.19102     C
C      0.86604  0.02424  0.41702     C
C      0.86604  0.97584  0.91702     C
H        0.867   0.1839   0.7768     H
H        0.867   0.8161   0.2768     H
C      0.87525  0.11875  0.20344     C
C      0.87525  0.88135  0.70344     C
C      0.87564  0.03574  0.97822     C
C      0.87564  0.96434  0.47822     C
C      0.87584  0.15994  0.76082     C
C      0.87584  0.84014  0.26082     C
H       0.8782   0.3327   0.9786     H
H       0.8782   0.6673   0.4786     H
H       0.8795   0.1257   0.1417     H
H       0.8795   0.8743   0.6417     H
H         0.88   0.0846   0.0245     H
H         0.88   0.9154   0.5245     H
C      0.88045  0.31224  0.00214     C
C      0.88045  0.68784  0.50214     C
C      0.88744  0.25164  0.07024     C
C      0.88744  0.74844  0.57024     C
H       0.8888   0.2313   0.0937     H
H       0.8888   0.7687   0.5937     H
C      0.90264  0.09054  0.71362     C
C      0.90264  0.90954  0.21362     C
O      0.91164  0.11197  0.29682     O
O      0.91164  0.88817  0.79682     O
C      0.91234  0.12494  0.78482     C
C      0.91234  0.87514  0.28482     C
H       0.9128   0.0942   0.6344     H
H       0.9128   0.9058   0.1344     H
H       0.9129   0.1172   0.2204     H
H       0.9129   0.8828   0.7204     H
H       0.9132   0.0308   0.9905     H
H       0.9132   0.9692   0.4905     H
O      0.91622  0.02645  0.43154     O
O      0.91622  0.97355  0.93154     O
C      0.91904  0.05324  0.68882     C
C      0.91904  0.94684  0.18882     C
H       0.9221   0.0557   0.8459     H
H       0.9221   0.9443   0.3459     H
C      0.92264  0.06382  0.64722     C
C      0.92264  0.93622  0.14722     C
C      0.92624  0.28504  0.02404     C
C      0.92624  0.71504  0.52404     C
C      0.92654  0.09054  0.76192     C
C      0.92654  0.90954  0.26192     C
O       0.9276   0.1261  0.39505     O
O       0.9276   0.8739  0.89505     O
Zn      0.9281  0.17984  0.43301    Zn
Zn      0.9281  0.82016  0.93301    Zn
C      0.93154  0.25314  0.05784     C
C      0.93154  0.74694  0.55784     C
H       0.9322   0.0015   0.2334     H
H       0.9322   0.9985   0.7334     H
C      0.93384  0.00684  0.70592     C
C      0.93384  0.99324  0.20592     C
C      0.93724  0.08394  0.86152     C
C      0.93724  0.12464  0.83722     C
C      0.93724  0.87544  0.33722     C
C      0.93724  0.91614  0.36152     C
C      0.93994  0.03034  0.62552     C
C      0.93994  0.96974  0.12552     C
H       0.9429   0.0384   0.5985     H
H       0.9429   0.9616   0.0985     H
C      0.95034  0.02644  0.18412     C
C      0.95034  0.97364  0.68412     C
H       0.9518    0.067    0.778     H
H       0.9518    0.933    0.278     H
C      0.95324  0.01524  0.14302     C
C      0.95324  0.98484  0.64302     C
H        0.955   0.2885   0.0154     H
H        0.955   0.7115   0.5154     H
H       0.9569   0.0571   0.9247     H
H       0.9569   0.9429   0.4247     H
O      0.95812  0.16032  0.49661     O
O      0.95812  0.83972  0.99661     O
C      0.95924  0.08434  0.90882     C
C      0.95924  0.91574  0.40882     C
H       0.9598    0.057   0.1965     H
H       0.9598    0.943   0.6965     H
H       0.9613   0.1956    0.845     H
H       0.9613   0.8044    0.345     H
C      0.96164  0.16764  0.86092     C
C      0.96164  0.83244  0.36092     C
Zn     0.96391  0.14521  0.35516    Zn
Zn     0.96391  0.85479  0.85516    Zn
Zn      0.9683  0.07379  0.43311    Zn
Zn      0.9683  0.92621  0.93311    Zn
C      0.97574  0.05144  0.12114     C
C      0.97574  0.94864  0.62114     C
C      0.98144  0.22234  0.07924     C
C      0.98144  0.77774  0.57924     C
O      0.98192  0.19412  0.11102     O
O      0.98192  0.80592  0.61102     O
O      0.98202  0.09472  0.13628     O
O      0.98202  0.90532  0.63628     O
O      0.98222  0.22642  0.43489     O
O      0.98222  0.77362  0.93489     O
C      0.98444  0.12494  0.93242     C
C      0.98444  0.87514  0.43242     C
C      0.98544  0.16644  0.90802     C
C      0.98544  0.83364  0.40802     C
O      0.98564  0.03836  0.08778     O
O      0.98564  0.96164  0.58778     O
C      0.99154  0.12494  0.51612     C
C      0.99154  0.87514  0.01612     C
H       0.9973   0.1938   0.5759     H
H       0.9973   0.8062   0.0759     H
O      0.99732  0.09142   0.0034     O
O      0.99732  0.90862   0.5034     O
