data_I
_chemical_name_common  '/home/zhangsd/repos/MofS-CGCNN/CGCNN_MT/data/WS24v2_external_test/clean_cifs/val_39'
_cell_length_a 23.97820
_cell_length_b 23.97820
_cell_length_c 23.97820
_cell_angle_alpha 90.00000
_cell_angle_beta  90.00000
_cell_angle_gamma 90.00000
_space_group_name_H-M_alt      'P 1'


loop_
_space_group_symop_operation_xyz
  'x, y, z' 

loop_
_atom_site_label
_atom_site_fract_x
_atom_site_fract_y
_atom_site_fract_z
_atom_site_type_symbol
H       0.0007   0.1884   0.1855     H
H       0.0007   0.3116   0.6855     H
H       0.0013   0.5785   0.6288     H
H       0.0013   0.9215   0.1288     H
C      0.00241  0.58496  0.95338     C
C      0.00241  0.91504  0.45338     C
O      0.00254  0.16037  0.45543     O
O      0.00254  0.33963  0.95543     O
C      0.00305  0.57265  0.43741     C
C      0.00305  0.92735  0.93741     C
C      0.00412    0.139  0.98215     C
C      0.00412    0.361  0.48215     C
C      0.00442  0.54249  0.91292     C
C      0.00442  0.95751  0.41292     C
N      0.01155  0.67928  0.18048     N
N      0.01155  0.82072  0.68048     N
C      0.01162  0.17982  0.22258     C
C      0.01162  0.32022  0.72258     C
C      0.01522  0.02571  0.09108     C
C      0.01522  0.47429  0.59108     C
C      0.01649  0.21592  0.91952     C
C      0.01649  0.28412  0.41952     C
C      0.01785  0.50412    0.361     C
C      0.01785  0.99588    0.861     C
C      0.01982   0.0531  0.84928     C
C      0.01982   0.4469  0.34932     C
H         0.02   0.0362   0.3493     H
C      0.02448  0.68942  0.23404     C
C      0.02448  0.81062  0.73404     C
C      0.02571  0.09108  0.01522     C
C      0.02571  0.40892  0.51522     C
H      0.03048  0.11624  0.54822     H
H       0.0351   0.5923   0.4248     H
H       0.0351   0.9077   0.9248     H
H       0.0362   0.3493     0.02     H
N      0.03675  0.37515  0.04615     N
C      0.03812  0.04009  0.63202     C
C      0.03812  0.45991  0.13202     C
C      0.03842  0.15602  0.32962     C
C      0.03842  0.34402  0.82962     C
N      0.03847   0.7271  0.58211     N
N      0.03847   0.7729  0.08211     N
C      0.03888  0.17282  0.95042     C
C      0.03888  0.32718  0.45042     C
C      0.04009  0.63202  0.03812     C
C      0.04009  0.86802  0.53812     C
H        0.041   0.2388   0.8983     H
H        0.041   0.2612   0.3983     H
C      0.04249  0.58708  0.99558     C
C      0.04249  0.91292  0.49558     C
O      0.04457  0.50254  0.16037     O
O      0.04457  0.99746  0.66037     O
N      0.04615  0.03675  0.37515     N
C      0.04662  0.50241  0.91504     C
C      0.04662  0.99759  0.41504     C
H       0.0476   0.1466    0.367     H
H       0.0476   0.3534    0.867     H
H      0.04822  0.46952  0.88376     H
C      0.04962  0.53888  0.32718     C
C      0.04962  0.96112  0.82718     C
H         0.05    0.578   0.3337     H
H         0.05    0.922   0.8337     H
C      0.05222  0.07264  0.80638     C
C      0.05222  0.42736  0.30642     C
C       0.0531  0.65072  0.51982     C
C       0.0531  0.84928  0.01982     C
H       0.0537   0.1117      0.8     H
H       0.0537   0.3883      0.3     H
H       0.0604   0.7038   0.2423     H
H       0.0604   0.7962   0.7423     H
C      0.06259  0.50305  0.57265     C
C      0.06259  0.99695  0.07265     C
H       0.0629   0.3747   0.0718     H
C      0.06366  0.15792  0.23271     C
C      0.06366  0.34208  0.73271     C
Zn     0.06598   0.7014   0.1191    Zn
Zn     0.06598   0.7986   0.6191    Zn
O      0.06857  0.08333  0.63976     O
O      0.06857  0.41667  0.13976     O
H       0.0718   0.0629   0.3747     H
C      0.07264  0.69362  0.55222     C
C      0.07264  0.80638  0.05222     C
C      0.07265  0.06259  0.99695     C
C      0.07265  0.43741  0.49695     C
H       0.0752   0.5351   0.5923     H
H       0.0752   0.9649   0.0923     H
C      0.07702  0.14492  0.28812     C
C      0.07702  0.35512  0.78812     C
H        0.078   0.1663     0.95     H
H        0.078   0.3337     0.45     H
H       0.0785   0.6288   0.4987     H
H       0.0785   0.8712   0.9987     H
C      0.08052  0.51649  0.28412     C
C      0.08052  0.98351  0.78408     C
H       0.0815   0.2189    0.143     H
H       0.0815   0.2811    0.643     H
N      0.08211  0.03847   0.7729     N
N      0.08211  0.46153   0.2729     N
O      0.08333  0.63976  0.06857     O
O      0.08333  0.86024  0.56857     O
C      0.08496  0.54662  0.99759     C
C      0.08496  0.95338  0.49759     C
C      0.08708  0.50442  0.95751     C
C      0.08708  0.99558  0.45751     C
C      0.09108  0.01522  0.02571     C
C      0.09108  0.48478  0.52571     C
H       0.0923   0.0752   0.9649     H
H       0.0923   0.4248   0.4649     H
H       0.1017    0.541   0.2612     H
H       0.1017    0.959   0.7612     H
C      0.10593  0.15081  0.18794     C
C      0.10593  0.34919  0.68794     C
C      0.10879  0.19021  0.14511     C
C      0.10879  0.30979  0.64511     C
O      0.10892  0.18063  0.75742     O
O      0.10892  0.31937  0.25742     O
H       0.1117      0.7   0.5537     H
H       0.1117      0.8   0.0537     H
H       0.1121   0.1287    0.297     H
H       0.1121   0.3713    0.797     H
H      0.11624  0.95178  0.53048     H
Zn      0.1191  0.06598   0.7014    Zn
Zn      0.1191  0.43402   0.2014    Zn
N      0.12495  0.54615  0.03675     N
H       0.1253   0.5718   0.0629     H
H       0.1287    0.203   0.6121     H
H       0.1287    0.297   0.1121     H
H       0.1288   0.0013   0.9215     H
H       0.1288   0.4987   0.4215     H
O      0.13168  0.70636  0.16667     O
O      0.13168  0.79364 0.66666667     O
C      0.13202  0.03812  0.45991     C
C      0.13202  0.46192  0.95991     C
H        0.133   0.5476   0.1466     H
H        0.133   0.9524   0.6466     H
C        0.139  0.51785  0.50412     C
C        0.139  0.98215  0.00412     C
O      0.13976  0.06857  0.41667     O
O      0.13976  0.43143  0.91667     O
H       0.1415   0.6556   0.2279     H
H        0.143   0.0815   0.2189     H
H        0.143   0.4185   0.7189     H
C      0.14492  0.21192  0.57702     C
C      0.14492  0.28812  0.07702     C
C      0.14511  0.10879  0.19021     C
C      0.14511  0.39121  0.69021     C
H       0.1466    0.133   0.5476     H
H       0.1466    0.367   0.0476     H
H       0.1491   0.2828   0.3224     H
H       0.1507     0.52   0.0362     H
C      0.15072  0.51982   0.4469     C
C      0.15072  0.98022   0.9469     C
C      0.15081  0.18794  0.10593     C
C      0.15081  0.31206  0.60593     C
N      0.15505  0.24455  0.31845     N
C      0.15512  0.17416  0.73552     C
C      0.15512  0.32584  0.23552     C
H       0.1556   0.2279   0.3585     H
C      0.15602  0.17042  0.53842     C
C      0.15602  0.32962  0.03842     C
C      0.15792  0.23271  0.06366     C
C      0.15792  0.26729  0.56366     C
O      0.16037  0.04457  0.50254     O
O      0.16037  0.45543  0.00254     O
H      0.16413  0.25768  0.81063     H
H       0.1663     0.55    0.578     H
H       0.1663     0.95    0.078     H
O      0.16667  0.13168  0.70636     O
O      0.16667  0.36832  0.20636     O
C      0.17042  0.53842  0.15602     C
C      0.17042  0.96162  0.65602     C
C      0.17282  0.54962  0.53888     C
C      0.17282  0.95042  0.03888     C
C      0.17416  0.73552  0.15512     C
C      0.17416  0.76452  0.65512     C
H       0.1776   0.6491   0.2828     H
N      0.17928  0.18048  0.48845     N
N      0.17928  0.31952  0.98845     N
C      0.17982  0.22258  0.01162     C
C      0.17982  0.27742  0.51162     C
N      0.18048  0.01155  0.67928     N
N      0.18048  0.48845  0.17928     N
O      0.18063  0.74262  0.60892     O
O      0.18063  0.75742  0.10892     O
N      0.18165  0.65505  0.24455     N
H       0.1855   0.0007   0.1884     H
H       0.1855   0.4993   0.6884     H
C      0.18794  0.10593  0.15081     C
C      0.18794  0.39407  0.65081     C
H       0.1884   0.1855   0.0007     H
H       0.1884   0.3145   0.5007     H
H      0.18937  0.83587  0.74232     H
C      0.18942  0.23404  0.47552     C
C      0.18942  0.26596  0.97552     C
C      0.19021  0.14511  0.10879     C
C      0.19021  0.35489  0.60879     C
C      0.19362  0.55222  0.42736     C
C      0.19362  0.94782  0.92736     C
C      0.19679  0.24068  0.27911     C
C      0.19679  0.25932  0.77911     C
C      0.19853  0.21906  0.73679     C
C      0.19853  0.28094  0.23679     C
H          0.2   0.5537   0.3883     H
H          0.2   0.9463   0.8883     H
Zn      0.2014   0.1191  0.43402    Zn
Zn      0.2014   0.3809  0.93402    Zn
H        0.203   0.6121   0.1287     H
H        0.203   0.8879   0.6287     H
H       0.2038   0.2423   0.4396     H
H       0.2038   0.2577   0.9396     H
O      0.20636  0.16667  0.36832     O
O      0.20636 0.33333333  0.86832     O
C      0.21192  0.57702  0.14492     C
C      0.21192  0.92302  0.64492     C
C      0.21592  0.58052  0.51649     C
C      0.21592  0.91952  0.01649     C
H       0.2189    0.143   0.0815     H
H       0.2189    0.357   0.5815     H
C      0.21906  0.73679  0.19853     C
C      0.21906  0.76321  0.69853     C
C      0.22089  0.69679  0.24068     C
C      0.22089  0.80321  0.74068     C
C      0.22258  0.01162  0.17982     C
C      0.22258  0.48842  0.67982     C
N       0.2271  0.58211  0.46153     N
N       0.2271  0.91789  0.96153     N
H       0.2279   0.1415   0.6556     H
C      0.23271  0.06366  0.15792     C
C      0.23271  0.43634  0.65792     C
C      0.23404  0.02448  0.68942     C
C      0.23404  0.47552  0.18942     C
C      0.23552  0.15512  0.32584     C
C      0.23552  0.34488  0.82584     C
C      0.23679  0.19853  0.28094     C
C      0.23679  0.30147  0.78094     C
H       0.2388   0.6017    0.541     H
H       0.2388   0.8983    0.041     H
C      0.24068  0.22089  0.69679     C
C      0.24068  0.27911  0.19679     C
H       0.2423   0.0604   0.7038     H
H       0.2423   0.4396   0.2038     H
H      0.24232  0.31063  0.16413     H
O      0.24262  0.60892  0.31937     O
O      0.24262  0.89112  0.81937     O
N      0.24455  0.18165  0.65505     N
O      0.25742  0.10892  0.31937     O
O      0.25742  0.39112  0.81937     O
H      0.25768  0.68937  0.66413     H
H      0.25768  0.81063  0.16413     H
H       0.2577   0.5604   0.7038     H
H       0.2577   0.9396   0.2038     H
C      0.25932  0.72089  0.69679     C
C      0.25932  0.77911  0.19679     C
H       0.2612   0.1017    0.541     H
H       0.2612   0.3983    0.041     H
C      0.26321  0.69853  0.28094     C
C      0.26321  0.80147  0.78094     C
C      0.26452  0.65512  0.32584     C
C      0.26452  0.84488  0.82584     C
C      0.26596  0.52448  0.68942     C
C      0.26596  0.97552  0.18942     C
C      0.26729  0.56366  0.15792     C
C      0.26729  0.93634  0.65792     C
N       0.2729  0.08211  0.46153     N
N       0.2729  0.41789  0.96153     N
C      0.27742  0.51162  0.17982     C
C      0.27742  0.98842  0.67982     C
C      0.27911  0.19679  0.24068     C
C      0.27911  0.30321  0.74068     C
C      0.28094  0.23679  0.19853     C
C      0.28094  0.26321  0.69853     C
H       0.2811    0.643   0.0815     H
H       0.2811    0.857   0.5815     H
H       0.2828   0.1776   0.6491     H
C      0.28412  0.08052  0.51649     C
C      0.28412  0.41952  0.01649     C
C      0.28812  0.07702  0.14492     C
C      0.28812  0.42302  0.64492     C
O      0.29364 0.66666667  0.36832     O
O      0.29364  0.83333  0.86832     O
H       0.2962   0.7423   0.4396     H
H       0.2962   0.7577   0.9396     H
H        0.297   0.1121   0.1287     H
H        0.297   0.3879   0.6287     H
Zn      0.2986   0.6191  0.43402    Zn
Zn      0.2986   0.8809  0.93402    Zn
H          0.3   0.0537   0.3883     H
H          0.3   0.4463   0.8883     H
C      0.30147  0.71906  0.73679     C
C      0.30147  0.78094  0.23679     C
C      0.30321  0.74068  0.27911     C
C      0.30321  0.75932  0.77911     C
C      0.30642  0.05222  0.42736     C
C      0.30642  0.44782  0.92736     C
C      0.30979  0.64511  0.10879     C
C      0.30979  0.85489  0.60879     C
C      0.31062  0.73404  0.47552     C
C      0.31062  0.76596  0.97552     C
H      0.31063  0.16413  0.24232     H
H      0.31063  0.33587  0.74232     H
H       0.3116   0.6855   0.0007     H
H       0.3116   0.8145   0.5007     H
C      0.31206  0.60593  0.15081     C
C      0.31206  0.89407  0.65081     C
H       0.3145   0.5007   0.1884     H
H       0.3145   0.9993   0.6884     H
O      0.31937  0.24262  0.60892     O
O      0.31937  0.25742  0.10892     O
N      0.31952  0.51155  0.67928     N
N      0.31952  0.98845  0.17928     N
C      0.32022  0.72258  0.01162     C
C      0.32022  0.77742  0.51162     C
N      0.32072  0.68048  0.48845     N
N      0.32072  0.81952  0.98845     N
C      0.32584  0.23552  0.15512     C
C      0.32584  0.26452  0.65512     C
C      0.32718  0.04962  0.53888     C
C      0.32718  0.45042  0.03888     C
C      0.32962  0.03842  0.15602     C
C      0.32962  0.46162  0.65602     C
O     0.33333333  0.63168  0.70636     O
O     0.33333333  0.86832  0.20636     O
H       0.3337     0.05    0.578     H
H       0.3337     0.45    0.078     H
H      0.33587  0.74232  0.31063     H
O      0.33963  0.54457  0.50254     O
O      0.33963  0.95543  0.00254     O
C      0.34208  0.73271  0.06366     C
C      0.34208  0.76729  0.56366     C
C      0.34402  0.67042  0.53842     C
C      0.34402  0.82962  0.03842     C
H       0.3444   0.7721   0.8585     H
C      0.34488  0.67416  0.73552     C
C      0.34488  0.82584  0.23552     C
N      0.34505  0.75555  0.81845     N
C      0.34919  0.68794  0.10593     C
C      0.34919  0.81206  0.60593     C
H       0.3493     0.48   0.5362     H
C      0.34932  0.01982   0.4469     C
C      0.34932  0.48022   0.9469     C
H       0.3509   0.7172   0.8224     H
H       0.3534    0.633   0.5476     H
H       0.3534    0.867   0.0476     H
C      0.35489  0.60879  0.19021     C
C      0.35489  0.89121  0.69021     C
C      0.35512  0.71192  0.57702     C
C      0.35512  0.78812  0.07702     C
H        0.357   0.5815   0.2189     H
H        0.357   0.9185   0.7189     H
O      0.36024  0.56857  0.41667     O
O      0.36024  0.93143  0.91667     O
C        0.361  0.01785  0.50412     C
C        0.361  0.48215  0.00412     C
H        0.367   0.0476   0.1466     H
H        0.367   0.4524   0.6466     H
C      0.36802  0.53812  0.45991     C
C      0.36802  0.96188  0.95991     C
O      0.36832  0.20636  0.16667     O
O      0.36832  0.29364 0.66666667     O
H       0.3712   0.5013   0.9215     H
H       0.3712   0.9987   0.4215     H
H       0.3713    0.703   0.6121     H
H       0.3713    0.797   0.1121     H
H       0.3747   0.4282   0.5629     H
N      0.37515  0.45395  0.53675     N
Zn      0.3809  0.56598   0.7014    Zn
Zn      0.3809  0.93402   0.2014    Zn
H      0.38376  0.04822  0.03048     H
H       0.3879   0.6287    0.297     H
H       0.3879   0.8713    0.797     H
H       0.3883      0.2   0.5537     H
H       0.3883      0.3   0.0537     H
O      0.39112  0.68063  0.75742     O
O      0.39112  0.81937  0.25742     O
C      0.39121  0.69021  0.14511     C
C      0.39121  0.80979  0.64511     C
C      0.39407  0.65081  0.18794     C
C      0.39407  0.84919  0.68794     C
H       0.3983    0.041   0.2612     H
H       0.3983    0.459   0.7612     H
H       0.4077   0.5752   0.9649     H
H       0.4077   0.9248   0.4649     H
C      0.40892  0.51522  0.02571     C
C      0.40892  0.98478  0.52571     C
C      0.41292  0.00442  0.95751     C
C      0.41292  0.49558  0.45751     C
C      0.41504  0.04662  0.99759     C
C      0.41504  0.45338  0.49759     C
O      0.41667  0.13976  0.06857     O
O      0.41667  0.36024  0.56857     O
N      0.41789  0.53847   0.7729     N
N      0.41789  0.96153   0.2729     N
H       0.4185   0.7189    0.143     H
H       0.4185   0.7811    0.643     H
C      0.41952  0.01649  0.28412     C
C      0.41952  0.48351  0.78412     C
H       0.4215   0.1288   0.4987     H
H       0.4215   0.3712   0.9987     H
H        0.422   0.6663     0.95     H
H        0.422   0.8337     0.45     H
C      0.42302  0.64492  0.28812     C
C      0.42302  0.85512  0.78812     C
H       0.4248   0.0351   0.5923     H
H       0.4248   0.4649   0.0923     H
C      0.42735  0.56259  0.99695     C
C      0.42735  0.93741  0.49695     C
C      0.42736  0.19362  0.55222     C
C      0.42736  0.30642  0.05222     C
H       0.4282   0.9371   0.8747     H
O      0.43143  0.58333  0.63976     O
O      0.43143  0.91667  0.13976     O
Zn     0.43402   0.2014   0.1191    Zn
Zn     0.43402   0.2986   0.6191    Zn
C      0.43634  0.65792  0.23271     C
C      0.43634  0.84208  0.73271     C
H       0.4371   0.6253   0.5718     H
C      0.43741  0.00305  0.57265     C
C      0.43741  0.49695  0.07265     C
H       0.4396   0.2038   0.2423     H
H       0.4396   0.2962   0.7423     H
H       0.4463   0.6117      0.8     H
H       0.4463   0.8883      0.3     H
C       0.4469  0.15072  0.51982     C
C       0.4469  0.34932  0.01982     C
C      0.44782  0.57264  0.80642     C
C      0.44782  0.92736  0.30642     C
H         0.45    0.078   0.3337     H
H         0.45    0.422   0.8337     H
C      0.45042  0.03888  0.32718     C
C      0.45042  0.46112  0.82718     C
H      0.45178  0.53048  0.38376     H
H       0.4524   0.6466    0.367     H
H       0.4524   0.8534    0.867     H
C      0.45338  0.00241  0.91504     C
C      0.45338  0.49759  0.41504     C
N      0.45395  0.96325  0.87515     N
O      0.45543  0.00254  0.16037     O
O      0.45543  0.49746  0.66037     O
C      0.45751  0.08708  0.99558     C
C      0.45751  0.41292  0.49558     C
H        0.459   0.7388   0.8983     H
H        0.459   0.7612   0.3983     H
C      0.45991  0.13202  0.03812     C
C      0.45991  0.36802  0.53812     C
C      0.46112  0.67282  0.95038     C
C      0.46112  0.82718  0.45042     C
N      0.46153   0.2271  0.58211     N
N      0.46153   0.2729  0.08211     N
C      0.46162  0.65602  0.32962     C
C      0.46162  0.84402  0.82962     C
C      0.46192  0.54009  0.63202     C
C      0.46192  0.95991  0.13202     C
N      0.46335  0.62495  0.54615     N
H       0.4638   0.6507     0.52     H
H       0.4649   0.0923   0.4248     H
H       0.4649   0.4077   0.9248     H
H      0.46952  0.88376  0.04822     H
C      0.47429  0.59108  0.01522     C
C      0.47429  0.90892  0.51522     C
C      0.47552  0.18942  0.23404     C
C      0.47552  0.31062  0.73404     C
H         0.48   0.9638   0.8493     H
C      0.48022   0.5531  0.84932     C
C      0.48022   0.9469  0.34932     C
C      0.48215  0.00412    0.361     C
C      0.48215  0.49588    0.861     C
C      0.48351  0.71592  0.91948     C
C      0.48351  0.78412  0.41952     C
C      0.48478  0.52571  0.09108     C
C      0.48478  0.97429  0.59108     C
C      0.48842  0.67982  0.22258     C
C      0.48842  0.82022  0.72258     C
N      0.48845  0.17928  0.18048     N
N      0.48845  0.32072  0.68048     N
C      0.49558  0.04249  0.91292     C
C      0.49558  0.45751  0.41292     C
C      0.49588    0.639  0.98215     C
C      0.49588    0.861  0.48215     C
C      0.49695  0.07265  0.43741     C
C      0.49695  0.42735  0.93741     C
O      0.49746  0.66037  0.45543     O
O      0.49746  0.83963  0.95543     O
C      0.49759  0.08496  0.95338     C
C      0.49759  0.41504  0.45338     C
H       0.4987   0.0785   0.6288     H
H       0.4987   0.4215   0.1288     H
H       0.4993   0.6884   0.1855     H
H       0.4993   0.8116   0.6855     H
H       0.5007   0.1884   0.3145     H
H       0.5007   0.3116   0.8145     H
H       0.5013   0.5785   0.8712     H
H       0.5013   0.9215   0.3712     H
C      0.50241  0.58496  0.54662     C
C      0.50241  0.91504  0.04662     C
O      0.50254  0.16037  0.04457     O
O      0.50254  0.33963  0.54457     O
C      0.50305  0.57265  0.06259     C
C      0.50305  0.92735  0.56259     C
C      0.50412    0.139  0.51785     C
C      0.50412    0.361  0.01785     C
C      0.50442  0.54249  0.58708     C
C      0.50442  0.95751  0.08708     C
N      0.51155  0.67928  0.31952     N
N      0.51155  0.82072  0.81952     N
C      0.51162  0.17982  0.27742     C
C      0.51162  0.32022  0.77742     C
C      0.51522  0.02571  0.40892     C
C      0.51522  0.47429  0.90892     C
C      0.51649  0.21592  0.58052     C
C      0.51649  0.28412  0.08052     C
C      0.51785  0.50412    0.139     C
C      0.51785  0.99588    0.639     C
C      0.51982   0.0531  0.65072     C
C      0.51982   0.4469  0.15072     C
C      0.52448  0.68942  0.26596     C
C      0.52448  0.81062  0.76596     C
C      0.52571  0.09108  0.48478     C
C      0.52571  0.40892  0.98478     C
H      0.53048  0.11624  0.95178     H
H      0.53048  0.38376  0.45178     H
H       0.5351   0.5923   0.0752     H
H       0.5351   0.9077   0.5752     H
C      0.53812  0.04009  0.86802     C
C      0.53812  0.45991  0.36802     C
C      0.53842  0.15602  0.17042     C
C      0.53842  0.34402  0.67042     C
N      0.53847   0.7271  0.91789     N
N      0.53847   0.7729  0.41789     N
C      0.53888  0.17282  0.54962     C
C      0.53888  0.32718  0.04962     C
C      0.54009  0.63202  0.46192     C
C      0.54009  0.86802  0.96188     C
H        0.541   0.2388   0.6017     H
H        0.541   0.2612   0.1017     H
C      0.54249  0.58708  0.50442     C
C      0.54249  0.91292  0.00442     C
O      0.54457  0.50254  0.33963     O
O      0.54457  0.99746  0.83963     O
C      0.54662  0.50241  0.58496     C
C      0.54662  0.99759  0.08496     C
H       0.5476   0.1466    0.133     H
H       0.5476   0.3534    0.633     H
H      0.54822  0.03048  0.11624     H
H      0.54822  0.46952  0.61624     H
C      0.54962  0.53888  0.17282     C
C      0.54962  0.96112  0.67282     C
H         0.55    0.578   0.1663     H
H         0.55    0.922   0.6663     H
C      0.55222  0.07264  0.69362     C
C      0.55222  0.42736  0.19362     C
C       0.5531  0.65072  0.98018     C
C       0.5531  0.84932  0.48022     C
H       0.5537   0.1117      0.7     H
H       0.5537   0.3883      0.2     H
H       0.5604   0.7038   0.2577     H
H       0.5604   0.7962   0.7577     H
C      0.56259  0.50305  0.92735     C
C      0.56259  0.99695  0.42735     C
C      0.56366  0.15792  0.26729     C
C      0.56366  0.34208  0.76729     C
Zn     0.56598   0.7014   0.3809    Zn
Zn     0.56598   0.7986   0.8809    Zn
O      0.56857  0.08333  0.86024     O
O      0.56857  0.41667  0.36024     O
C      0.57264  0.69362  0.94778     C
C      0.57264  0.80642  0.44782     C
C      0.57265  0.06259  0.50305     C
C      0.57265  0.43741  0.00305     C
H       0.5752   0.5351   0.9077     H
H       0.5752   0.9649   0.4077     H
C      0.57702  0.14492  0.21192     C
C      0.57702  0.35512  0.71192     C
H        0.578   0.1663     0.55     H
H        0.578   0.3337     0.05     H
H       0.5785   0.6288   0.0013     H
H       0.5785   0.8712   0.5013     H
C      0.58052  0.51649  0.21592     C
C      0.58052  0.98351  0.71592     C
H       0.5815   0.2189    0.357     H
H       0.5815   0.2811    0.857     H
N      0.58211  0.03847   0.7271     N
N      0.58211  0.46153   0.2271     N
O      0.58333  0.63976  0.43143     O
O      0.58333  0.86024  0.93143     O
C      0.58496  0.54662  0.50241     C
C      0.58496  0.95338  0.00241     C
C      0.58708  0.50442  0.54249     C
C      0.58708  0.99558  0.04249     C
C      0.59108  0.01522  0.47429     C
C      0.59108  0.48478  0.97429     C
H       0.5923   0.0752   0.5351     H
H       0.5923   0.4248   0.0351     H
H       0.6017    0.541   0.2388     H
H       0.6017    0.959   0.7388     H
C      0.60593  0.15081  0.31206     C
C      0.60593  0.34919  0.81206     C
C      0.60879  0.19021  0.35489     C
C      0.60879  0.30979  0.85489     C
O      0.60892  0.18063  0.74262     O
O      0.60892  0.31937  0.24262     O
H       0.6117      0.7   0.9463     H
H       0.6117      0.8   0.4463     H
H       0.6121   0.1287    0.203     H
H       0.6121   0.3713    0.703     H
H      0.61624  0.54822  0.46952     H
Zn      0.6191  0.06598   0.7986    Zn
Zn      0.6191  0.43402   0.2986    Zn
N      0.62495  0.95395  0.96325     N
H       0.6253   0.9282   0.9371     H
H       0.6287    0.203   0.8879     H
H       0.6287    0.297   0.3879     H
H       0.6288   0.0013   0.5785     H
H       0.6288   0.4987   0.0785     H
O      0.63168  0.70636 0.33333333     O
O      0.63168  0.79364  0.83333     O
C      0.63202  0.03812  0.04009     C
C      0.63202  0.46192  0.54009     C
H        0.633   0.5476   0.3534     H
H        0.633   0.9524   0.8534     H
C        0.639  0.51785  0.99588     C
C        0.639  0.98215  0.49588     C
O      0.63976  0.06857  0.08333     O
O      0.63976  0.43143  0.58333     O
H       0.6415   0.6556   0.2721     H
H       0.6415   0.8444   0.7721     H
H        0.643   0.0815   0.2811     H
H        0.643   0.4185   0.7811     H
C      0.64492  0.21192  0.92302     C
C      0.64492  0.28812  0.42302     C
C      0.64511  0.10879  0.30979     C
C      0.64511  0.39121  0.80979     C
H       0.6466    0.133   0.9524     H
H       0.6466    0.367   0.4524     H
H       0.6491   0.2828   0.1776     H
H       0.6507     0.98   0.9638     H
C      0.65072  0.51982   0.0531     C
C      0.65072  0.98018   0.5531     C
C      0.65081  0.18794  0.39407     C
C      0.65081  0.31206  0.89407     C
N      0.65505  0.24455  0.18165     N
C      0.65512  0.17416  0.76452     C
C      0.65512  0.32584  0.26452     C
H       0.6556   0.2279   0.1415     H
C      0.65602  0.17042  0.96162     C
C      0.65602  0.32962  0.46162     C
C      0.65792  0.23271  0.43634     C
C      0.65792  0.26729  0.93634     C
O      0.66037  0.04457  0.99746     O
O      0.66037  0.45543  0.49746     O
H      0.66413  0.25768  0.68937     H
H       0.6663     0.55    0.922     H
H       0.6663     0.95    0.422     H
O     0.66666667  0.13168  0.79364     O
O     0.66666667  0.36832  0.29364     O
C      0.67042  0.53842  0.34402     C
C      0.67042  0.96162  0.84398     C
C      0.67282  0.54962  0.96112     C
C      0.67282  0.95038  0.46112     C
C      0.67416  0.73552  0.34488     C
C      0.67416  0.76452  0.84488     C
H       0.6776   0.6491   0.2172     H
H       0.6776   0.8509   0.7172     H
N      0.67928  0.18048  0.01155     N
N      0.67928  0.31952  0.51155     N
C      0.67982  0.22258  0.48842     C
C      0.67982  0.27742  0.98842     C
N      0.68048  0.01155  0.82072     N
N      0.68048  0.48845  0.32072     N
O      0.68063  0.74262  0.89112     O
O      0.68063  0.75742  0.39112     O
N      0.68165  0.65505  0.25555     N
N      0.68165  0.84505  0.75555     N
H       0.6855   0.0007   0.3116     H
H       0.6855   0.4993   0.8116     H
C      0.68794  0.10593  0.34919     C
C      0.68794  0.39407  0.84919     C
H       0.6884   0.1855   0.4993     H
H       0.6884   0.3145   0.9993     H
C      0.68942  0.23404  0.02448     C
C      0.68942  0.26596  0.52448     C
C      0.69021  0.14511  0.39121     C
C      0.69021  0.35489  0.89121     C
C      0.69362  0.55222  0.07264     C
C      0.69362  0.94778  0.57264     C
C      0.69679  0.24068  0.22089     C
C      0.69679  0.25932  0.72089     C
C      0.69853  0.21906  0.76321     C
C      0.69853  0.28094  0.26321     C
H          0.7   0.5537   0.1117     H
H          0.7   0.9463   0.6117     H
Zn      0.7014   0.1191  0.06598    Zn
Zn      0.7014   0.3809  0.56598    Zn
H        0.703   0.6121   0.3713     H
H        0.703   0.8879   0.8713     H
H       0.7038   0.2423   0.0604     H
H       0.7038   0.2577   0.5604     H
O      0.70636  0.16667  0.13168     O
O      0.70636 0.33333333  0.63168     O
C      0.71192  0.57702  0.35512     C
C      0.71192  0.92302  0.85508     C
C      0.71592  0.58052  0.98351     C
C      0.71592  0.91948  0.48351     C
H       0.7189    0.143   0.4185     H
H       0.7189    0.357   0.9185     H
C      0.71906  0.73679  0.30147     C
C      0.71906  0.76321  0.80147     C
C      0.72089  0.69679  0.25932     C
C      0.72089  0.80321  0.75932     C
C      0.72258  0.01162  0.32022     C
C      0.72258  0.48842  0.82022     C
N       0.7271  0.58211  0.03847     N
N       0.7271  0.91789  0.53847     N
C      0.73271  0.06366  0.34208     C
C      0.73271  0.43634  0.84208     C
C      0.73404  0.02448  0.81058     C
C      0.73404  0.47552  0.31062     C
C      0.73552  0.15512  0.17416     C
C      0.73552  0.34488  0.67416     C
C      0.73679  0.19853  0.21906     C
C      0.73679  0.30147  0.71906     C
H       0.7388   0.6017    0.959     H
H       0.7388   0.8983    0.459     H
C      0.74068  0.22089  0.80321     C
C      0.74068  0.27911  0.30321     C
H       0.7423   0.0604   0.7962     H
H       0.7423   0.4396   0.2962     H
H      0.74232  0.18937  0.83587     H
H      0.74232  0.31063  0.33587     H
O      0.74262  0.60892  0.18063     O
O      0.74262  0.89112  0.68063     O
O      0.75742  0.10892  0.18063     O
O      0.75742  0.39112  0.68063     O
H      0.75768  0.68937  0.83587     H
H      0.75768  0.81063  0.33587     H
H       0.7577   0.5604   0.7962     H
H       0.7577   0.9396   0.2962     H
C      0.75932  0.72089  0.80321     C
C      0.75932  0.77911  0.30321     C
H       0.7612   0.1017    0.959     H
H       0.7612   0.3983    0.459     H
C      0.76321  0.69853  0.21906     C
C      0.76321  0.80147  0.71906     C
C      0.76452  0.65512  0.17416     C
C      0.76452  0.84488  0.67416     C
C      0.76596  0.52448  0.81062     C
C      0.76596  0.97552  0.31062     C
C      0.76729  0.56366  0.34208     C
C      0.76729  0.93634  0.84208     C
N       0.7729  0.08211  0.03847     N
N       0.7729  0.41789  0.53847     N
C      0.77742  0.51162  0.32022     C
C      0.77742  0.98842  0.82018     C
C      0.77911  0.19679  0.25932     C
C      0.77911  0.30321  0.75932     C
C      0.78094  0.23679  0.30147     C
C      0.78094  0.26321  0.80147     C
H       0.7811    0.643   0.4185     H
H       0.7811    0.857   0.9185     H
C      0.78412  0.08052  0.98351     C
C      0.78412  0.41952  0.48351     C
C      0.78812  0.07702  0.35512     C
C      0.78812  0.42302  0.85512     C
O      0.79364 0.66666667  0.13168     O
O      0.79364  0.83333  0.63168     O
H       0.7962   0.7423   0.0604     H
H       0.7962   0.7577   0.5604     H
H        0.797   0.1121   0.3713     H
H        0.797   0.3879   0.8713     H
Zn      0.7986   0.6191  0.06598    Zn
Zn      0.7986   0.8809  0.56598    Zn
H          0.8   0.0537   0.1117     H
H          0.8   0.4463   0.6117     H
C      0.80147  0.71906  0.76321     C
C      0.80147  0.78094  0.26321     C
C      0.80321  0.74068  0.22089     C
C      0.80321  0.75932  0.72089     C
C      0.80642  0.05222  0.07264     C
C      0.80642  0.44782  0.57264     C
C      0.80979  0.64511  0.39121     C
C      0.80979  0.85489  0.89121     C
C      0.81062  0.73404  0.02448     C
C      0.81062  0.76596  0.52448     C
H      0.81063  0.16413  0.25768     H
H       0.8116   0.6855   0.4993     H
H       0.8116   0.8145   0.9993     H
C      0.81206  0.60593  0.34919     C
C      0.81206  0.89407  0.84919     C
H       0.8145   0.5007   0.3116     H
H       0.8145   0.9993   0.8116     H
N      0.81845  0.34505  0.75555     N
O      0.81937  0.24262  0.89112     O
O      0.81937  0.25742  0.39112     O
N      0.81952  0.51155  0.82072     N
N      0.81952  0.98845  0.32072     N
C      0.82022  0.72258  0.48842     C
C      0.82022  0.77742  0.98838     C
N      0.82072  0.68048  0.01155     N
N      0.82072  0.81952  0.51155     N
H       0.8224   0.3509   0.7172     H
C      0.82584  0.23552  0.34488     C
C      0.82584  0.26452  0.84488     C
C      0.82718  0.04962  0.96112     C
C      0.82718  0.45042  0.46112     C
C      0.82962  0.03842  0.34402     C
C      0.82962  0.46162  0.84402     C
O      0.83333  0.63168  0.79364     O
O      0.83333  0.86832  0.29364     O
H       0.8337     0.05    0.922     H
H       0.8337     0.45    0.422     H
H      0.83587  0.74232  0.18937     H
H      0.83587  0.75768  0.68937     H
O      0.83963  0.54457  0.99746     O
O      0.83963  0.95543  0.49746     O
C      0.84208  0.73271  0.43634     C
C      0.84208  0.76729  0.93634     C
C      0.84402  0.67042  0.96158     C
C      0.84402  0.82962  0.46162     C
C      0.84488  0.67416  0.76452     C
C      0.84488  0.82584  0.26452     C
C      0.84919  0.68794  0.39407     C
C      0.84919  0.81206  0.89407     C
C      0.84932  0.01982   0.0531     C
C      0.84932  0.48022   0.5531     C
H       0.8534    0.633   0.9524     H
H       0.8534    0.867   0.4524     H
C      0.85489  0.60879  0.30979     C
C      0.85489  0.89121  0.80979     C
C      0.85512  0.71192  0.92298     C
C      0.85512  0.78812  0.42302     C
H        0.857   0.5815   0.2811     H
H        0.857   0.9185   0.7811     H
H       0.8585   0.3444   0.7721     H
O      0.86024  0.56857  0.08333     O
O      0.86024  0.93143  0.58333     O
C        0.861  0.01785  0.99588     C
C        0.861  0.48215  0.49588     C
H        0.867   0.0476   0.3534     H
H        0.867   0.4524   0.8534     H
C      0.86802  0.53812  0.04009     C
C      0.86802  0.96188  0.54009     C
O      0.86832  0.20636 0.33333333     O
O      0.86832  0.29364  0.83333     O
H       0.8712   0.5013   0.5785     H
H       0.8712   0.9987   0.0785     H
H       0.8713    0.703   0.8879     H
H       0.8713    0.797   0.3879     H
Zn      0.8809  0.56598   0.7986    Zn
Zn      0.8809  0.93402   0.2986    Zn
H      0.88376  0.04822  0.46952     H
H      0.88376  0.45178  0.96952     H
H       0.8879   0.6287    0.203     H
H       0.8879   0.8713    0.703     H
H       0.8883      0.2   0.9463     H
H       0.8883      0.3   0.4463     H
O      0.89112  0.68063  0.74262     O
O      0.89112  0.81937  0.24262     O
C      0.89121  0.69021  0.35489     C
C      0.89121  0.80979  0.85489     C
C      0.89407  0.65081  0.31206     C
C      0.89407  0.84919  0.81206     C
H       0.8983    0.041   0.2388     H
H       0.8983    0.459   0.7388     H
H       0.9077   0.5752   0.5351     H
H       0.9077   0.9248   0.0351     H
C      0.90892  0.51522  0.47429     C
C      0.90892  0.98478  0.97429     C
C      0.91292  0.00442  0.54249     C
C      0.91292  0.49558  0.04249     C
C      0.91504  0.04662  0.50241     C
C      0.91504  0.45338  0.00241     C
O      0.91667  0.13976  0.43143     O
O      0.91667  0.36024  0.93143     O
N      0.91789  0.53847   0.7271     N
N      0.91789  0.96153   0.2271     N
H       0.9185   0.7189    0.357     H
H       0.9185   0.7811    0.857     H
C      0.91948  0.01649  0.21592     C
C      0.91948  0.48351  0.71592     C
H       0.9215   0.1288   0.0013     H
H       0.9215   0.3712   0.5013     H
H        0.922   0.6663     0.55     H
H        0.922   0.8337     0.05     H
C      0.92302  0.64492  0.21192     C
C      0.92302  0.85512  0.71188     C
H       0.9248   0.0351   0.9077     H
H       0.9248   0.4649   0.4077     H
C      0.92735  0.56259  0.50305     C
C      0.92735  0.93741  0.00305     C
C      0.92736  0.19362  0.94782     C
C      0.92736  0.30642  0.44782     C
H       0.9282   0.9371   0.6253     H
O      0.93143  0.58333  0.86024     O
O      0.93143  0.91667  0.36024     O
Zn     0.93402   0.2014   0.3809    Zn
Zn     0.93402   0.2986   0.8809    Zn
C      0.93634  0.65792  0.26729     C
C      0.93634  0.84208  0.76729     C
C      0.93741  0.00305  0.92735     C
C      0.93741  0.49695  0.42735     C
H       0.9396   0.2038   0.2577     H
H       0.9396   0.2962   0.7577     H
H       0.9463   0.6117      0.7     H
H       0.9463   0.8883      0.2     H
C       0.9469  0.15072  0.98022     C
C       0.9469  0.34932  0.48022     C
C      0.94778  0.57264  0.69362     C
C      0.94778  0.92736  0.19362     C
H         0.95    0.078   0.1663     H
H         0.95    0.422   0.6663     H
C      0.95038  0.03888  0.17282     C
C      0.95038  0.46112  0.67282     C
H      0.95178  0.53048  0.11624     H
H       0.9524   0.6466    0.133     H
H       0.9524   0.8534    0.633     H
C      0.95338  0.00241  0.58496     C
C      0.95338  0.49759  0.08496     C
N      0.95395  0.96325  0.62495     N
O      0.95543  0.00254  0.33963     O
O      0.95543  0.49746  0.83963     O
C      0.95751  0.08708  0.50442     C
C      0.95751  0.41292  0.00442     C
H        0.959   0.7388   0.6017     H
H        0.959   0.7612   0.1017     H
C      0.95991  0.13202  0.46192     C
C      0.95991  0.36802  0.96188     C
C      0.96112  0.67282  0.54962     C
C      0.96112  0.82718  0.04962     C
N      0.96153   0.2271  0.91789     N
N      0.96153   0.2729  0.41789     N
C      0.96162  0.65602  0.17042     C
C      0.96162  0.84402  0.67038     C
C      0.96188  0.54009  0.86802     C
C      0.96188  0.95991  0.36802     C
H       0.9649   0.0923   0.0752     H
H       0.9649   0.4077   0.5752     H
H      0.96952  0.61624  0.95178     H
H      0.96952  0.88376  0.45178     H
C      0.97429  0.59108  0.48478     C
C      0.97429  0.90892  0.98478     C
C      0.97552  0.18942  0.26596     C
C      0.97552  0.31062  0.76596     C
H         0.98   0.9638   0.6507     H
C      0.98018   0.5531  0.65072     C
C      0.98018   0.9469  0.15072     C
C      0.98215  0.00412    0.139     C
C      0.98215  0.49588    0.639     C
C      0.98351  0.71592  0.58052     C
C      0.98351  0.78408  0.08052     C
C      0.98478  0.52571  0.40892     C
C      0.98478  0.97429  0.90892     C
C      0.98842  0.67982  0.27742     C
C      0.98842  0.82022  0.77742     C
N      0.98845  0.17928  0.31952     N
N      0.98845  0.32072  0.81952     N
C      0.99558  0.04249  0.58708     C
C      0.99558  0.45751  0.08708     C
C      0.99588    0.639  0.51785     C
C      0.99588    0.861  0.01785     C
C      0.99695  0.07265  0.06259     C
C      0.99695  0.42735  0.56259     C
O      0.99746  0.66037  0.04457     O
O      0.99746  0.83963  0.54457     O
C      0.99759  0.08496  0.54662     C
C      0.99759  0.41504  0.04662     C
H       0.9987   0.0785   0.8712     H
H       0.9987   0.4215   0.3712     H
H       0.9993   0.6884   0.3145     H
H       0.9993   0.8116   0.8145     H
