data_I
_chemical_name_common  '/home/zhangsd/repos/MofS-CGCNN/CGCNN_MT/data/WS24v2_external_test/clean_cifs/val_1'
_cell_length_a 46.51260
_cell_length_b 15.27720
_cell_length_c 27.29730
_cell_angle_alpha 90.00000
_cell_angle_beta  107.62800
_cell_angle_gamma 90.00000
_space_group_name_H-M_alt      'P 1'


loop_
_space_group_symop_operation_xyz
  'x, y, z' 

loop_
_atom_site_label
_atom_site_fract_x
_atom_site_fract_y
_atom_site_fract_z
_atom_site_type_symbol
Ni         0.0      0.5      0.0    Ni
Ni         0.0      0.5      0.5    Ni
N      0.00086  0.43514  0.56762     N
N      0.00086  0.56494  0.06762     N
O      0.00598  0.38154  0.46632     O
O      0.00598  0.61854  0.96632     O
H      0.00625   0.3413  0.48634     H
H      0.00625   0.6587  0.98634     H
C      0.00695  0.33914  0.63142     C
C      0.00695  0.66094  0.13142     C
H      0.01375  0.29178  0.65321     H
H      0.01375  0.70822  0.15321     H
N      0.01382  0.40144   0.8654     N
N      0.01382  0.59864   0.3654     N
C      0.01547  0.36164  0.58932     C
C      0.01547  0.63844  0.08932     C
C      0.01648  0.45724  0.90492     C
C      0.01648  0.54284  0.40492     C
H      0.02209  0.28197  0.80362     H
H      0.02209  0.71803  0.30362     H
H       0.0292  0.49443  0.41164     H
H       0.0292  0.50557  0.91164     H
H      0.02927   0.3308  0.57743     H
H      0.02927   0.6692  0.07743     H
C      0.02997  0.40684  0.82852     C
C      0.02997  0.59324  0.32852     C
C      0.03181  0.33354  0.79972     C
C      0.03181  0.66654  0.29972     C
H      0.03766  0.48324  0.17214     H
H      0.03766  0.51676  0.67213     H
H      0.04001  0.34874  0.13489     H
H      0.04001  0.65126  0.63489     H
H      0.04206  0.46723  0.34037     H
H      0.04206  0.53277  0.84037     H
C      0.04407  0.48304  0.82214     C
C      0.04407  0.51704  0.32214     C
N      0.04671  0.48284  0.02182     N
N      0.04671  0.51724  0.52182     N
C      0.04821  0.33744  0.76512     C
C      0.04821  0.66264  0.26512     C
H      0.04885  0.28866  0.74512     H
H      0.04885  0.71134  0.24512     H
H      0.05197  0.34988  0.01634     H
H      0.05197  0.65012  0.51635     H
H      0.05278  0.18448  0.15105     H
H      0.05278  0.81552  0.65105     H
C      0.05628  0.45804  0.17482     C
C      0.05628  0.54204  0.67482     C
C      0.05771  0.37764  0.15262     C
C      0.05771  0.62244  0.65262     C
C      0.06107  0.48634  0.78902     C
C      0.06107  0.51374  0.28902     C
C      0.06141  0.40424  0.02284     C
C      0.06141  0.59584  0.52284     C
C      0.06367  0.41234  0.75972     C
C      0.06367  0.58774  0.25972     C
H      0.06431  0.39793  0.53433     H
H      0.06431  0.60207  0.03433     H
C      0.06782  0.45764  0.53242     C
C      0.06782  0.54244  0.03242     C
H      0.06788  0.15625    0.949     H
H      0.06788  0.84375    0.449     H
C      0.06823  0.18644  0.13604     C
C      0.06823  0.81364  0.63604     C
H      0.06929  0.06446  0.10759     H
H      0.06929  0.93554  0.60759     H
H      0.06962  0.02935  0.02297     H
H      0.06962  0.97065  0.52297     H
H        0.071  0.46217  0.28584     H
H        0.071  0.53783  0.78584     H
H      0.07225  0.28465  0.89762     H
H      0.07225  0.71535  0.39762     H
C      0.07738  0.12065  0.11184     C
C      0.07738  0.87945  0.61184     C
N      0.08113  0.41764  0.72582     N
N      0.08113  0.58244  0.22582     N
C      0.08288  0.49854  0.70142     C
C      0.08288  0.50154  0.20142     C
O      0.08366  0.01114  0.01349     O
O      0.08366  0.98894  0.51349     O
C      0.08482  0.19185  0.95514     C
C      0.08482  0.80825  0.45514     C
C      0.08495  0.34054  0.15642     C
C      0.08495  0.65954  0.65642     C
N        0.086  0.25684  0.13432     N
N        0.086  0.74324  0.63432     N
H      0.08641  0.38321  0.63619     H
H      0.08641  0.61679   0.1362     H
C      0.08701  0.26255  0.92604     C
C      0.08701  0.73755  0.42604     C
C      0.09139  0.41714  0.03444     C
C      0.09139  0.58294  0.53444     C
C      0.09252  0.34084  0.70912     C
C      0.09252  0.65924  0.20912     C
C      0.09339  0.33654  0.65852     C
C      0.09339  0.66354  0.15852     C
N      0.09597  0.49404  0.54022     N
N      0.09597  0.50604  0.04022     N
N      0.10051  0.14874  0.09402     N
N      0.10051  0.85134  0.59402     N
H       0.1016  0.10102  0.58291     H
H       0.1016  0.89898   0.0829     H
H      0.10207  0.27224  0.77535     H
H      0.10207  0.72776  0.27535     H
C      0.10271  0.27004  0.74162     C
C      0.10271  0.73004  0.24162     C
C      0.10474  0.26224  0.64162     C
C      0.10474  0.73784  0.14162     C
C      0.10522  0.23004  0.10962     C
C      0.10522  0.77004  0.60962     C
H      0.10544  0.25902  0.60794     H
H      0.10544  0.74098  0.10794     H
H      0.10609  0.37428  0.03782     H
H      0.10609  0.62572  0.53782     H
C      0.11014  0.46394  0.20392     C
C      0.11014  0.53614  0.70392     C
N      0.11082  0.18044  0.99442     N
N      0.11082  0.81964  0.49442     N
C      0.11158  0.38314  0.18202     C
C      0.11158  0.61694  0.68202     C
H      0.11193  0.33784   0.8541     H
H      0.11193  0.66216   0.3541     H
H      0.11221  0.34535  0.51008     H
H      0.11221  0.65465  0.01008     H
C      0.11367  0.19714  0.72442     C
C      0.11367  0.80294  0.22442     C
C      0.11506  0.19264  0.67512     C
C      0.11506  0.80744  0.17512     C
N      0.11534  0.29374  0.94742     N
N      0.11534  0.70634  0.44742     N
C      0.11769  0.08064  0.60992     C
C      0.11769  0.91944  0.10992     C
H      0.11961  0.22133  0.44026     H
H      0.11961  0.77867  0.94026     H
H      0.12027  0.14997  0.74651     H
H      0.12027  0.85003  0.24651     H
H      0.12028   0.2652  0.10417     H
H      0.12028   0.7348  0.60417     H
Ni     0.12267  0.08212  0.04992    Ni
Ni     0.12267  0.91788  0.54992    Ni
C      0.12375  0.44944  0.55692     C
C      0.12375  0.55064  0.05692     C
C      0.12401  0.37714  0.87742     C
C      0.12401  0.62294  0.37742     C
H      0.12463  0.35657   0.4079     H
H      0.12463  0.64343   0.9079     H
C      0.12739  0.36804  0.53772     C
C      0.12739  0.63204  0.03772     C
N      0.12745  0.11814  0.65784     N
N      0.12745  0.88194  0.15784     N
H       0.1279  0.49343  0.22059     H
H       0.1279  0.50657  0.72059     H
C      0.12845  0.24434  0.98922     C
C      0.12845  0.75574  0.48922     C
C       0.1292  0.36564  0.92962     C
C       0.1292  0.63444  0.42962     C
H      0.12948  0.10824  0.50252     H
H      0.12948  0.89176  0.00251     H
H      0.13013  0.35765  0.18444     H
H      0.13013  0.64235  0.68444     H
H      0.13324   0.4555  0.82525     H
H      0.13324   0.5445  0.32525     H
N      0.13421  0.01204  0.60735     N
N      0.13421  0.98804  0.10735     N
C      0.13664  0.23434  0.43052     C
C      0.13664  0.76574  0.93052     C
C      0.13691  0.44735  0.86044     C
C      0.13691  0.55275  0.36044     C
C      0.13973  0.31514  0.41122     C
C      0.13973  0.68494  0.91122     C
C      0.14081  0.06804  0.49062     C
C      0.14081  0.93204  0.99062     C
N      0.14386  0.01444  0.00402     N
N      0.14386  0.98564  0.50402     N
H      0.14519  0.45961  0.10812     H
H      0.14519  0.54039  0.60812     H
C      0.14717  0.48474  0.59572     C
C      0.14717  0.51534  0.09572     C
C      0.14752  0.42294  0.96392     C
C      0.14752  0.57714  0.46392     C
H      0.14765  0.25442  0.01166     H
H      0.14765  0.74558  0.51166     H
H      0.15123  0.41459  0.99903     H
H      0.15123  0.58541  0.49903     H
C      0.15183  0.06794  0.68642     C
C      0.15183  0.93214  0.18642     C
C      0.15334  0.31974  0.55902     C
C      0.15334  0.68034  0.05902     C
C      0.15497  0.49504  0.39402     C
C      0.15497  0.50504  0.89402     C
C      0.15527  0.00274  0.65512     C
C      0.15527  0.99734  0.15512     C
H      0.15568  0.26509  0.54571     H
H      0.15568  0.73491  0.04571     H
N      0.15625  0.08754  0.45698     N
N      0.15625  0.91254  0.95698     N
C      0.15866  0.17264  0.43552     C
C      0.15866  0.82744  0.93552     C
C      0.16038  0.49264  0.94634     C
C      0.16038  0.50744  0.44634     C
O      0.16114  0.15544  0.08136     O
O      0.16114  0.84464  0.58136     O
H      0.16146  0.32277  0.67927     H
H      0.16146  0.67723  0.17926     H
C      0.16174  0.05034  0.97752     C
C      0.16174  0.94974  0.47752     C
H      0.16341  0.07729  0.72031     H
H      0.16341  0.92271  0.22031     H
C      0.16468  0.33664  0.39632     C
C      0.16468  0.66344  0.89632     C
H      0.16587  0.30116  0.76467     H
H      0.16587  0.69884  0.26467     H
H      0.16631  0.32881  0.29412     H
H      0.16631  0.67119  0.79412     H
N      0.16747  0.41994  0.37572     N
N      0.16747  0.58014  0.87572     N
H      0.16779  0.10853  0.97943     H
H      0.16779  0.89147  0.47943     H
C      0.16922  0.01114  0.44814     C
C      0.16922  0.98894  0.94814     C
H      0.16964   0.0415  0.16429     H
H      0.16964   0.9585  0.66429     H
H      0.17023  0.18439  0.83173     H
H      0.17023  0.81561  0.33172     H
H      0.17273  0.46857  0.46957     H
H      0.17273  0.53143  0.96957     H
C      0.17328  0.43884  0.61624     C
C      0.17328  0.56124  0.11624     C
C      0.17591  0.35374  0.60062     C
C      0.17591  0.64634  0.10062     C
O      0.17656  0.22574  0.16497     O
O      0.17656  0.77434  0.66497     O
C      0.17996  0.30584  0.70182     C
C      0.17996  0.69424  0.20182     C
C      0.18033  0.37394  0.29922     C
C      0.18033  0.62614  0.79922     C
H       0.1809  0.00313  0.42622     H
H       0.1809  0.99687  0.92622     H
C      0.18239  0.29265  0.75274     C
C      0.18239  0.70745  0.25274     C
C      0.18345  0.43184  0.33982     C
C      0.18345  0.56824  0.83982     C
C      0.18347  0.19054  0.42024     C
C      0.18347  0.80954  0.92024     C
S      0.18614  0.19875  0.12081     S
S      0.18614  0.80125  0.62081     S
C      0.18673  0.27404  0.40064     C
C      0.18673  0.72604  0.90064     C
H      0.18841  0.17386  0.92385     H
H      0.18841  0.82614  0.42385     H
C      0.18869  0.20467  0.85294     C
C      0.18869  0.79547  0.35294     C
H      0.18938  0.46485  0.64078     H
H      0.18938  0.53515  0.14078     H
O      0.19528  0.27774  0.09732     O
O      0.19528  0.72234  0.59732     O
H       0.1956  0.34172  0.24039     H
H       0.1956  0.65828  0.74039     H
H      0.19609  0.13282  0.64249     H
H      0.19609  0.86718  0.14249     H
C      0.19754  0.38214  0.26674     C
C      0.19754  0.61794  0.76674     C
H      0.19807  0.14776  0.42261     H
H      0.19807  0.85224  0.92261     H
C      0.19892  0.19937  0.90344     C
C      0.19892  0.80077  0.40344     C
N      0.20116  0.30304  0.62977     N
N      0.20116  0.69704  0.12977     N
H      0.20253  0.31601  0.00896     H
H      0.20253  0.68398  0.50896     H
C      0.20337  0.49864  0.84534     C
C      0.20337  0.50144  0.34534     C
H      0.20369    0.287  0.39067     H
H      0.20369    0.713  0.89067     H
C      0.20424  0.29474  0.68302     C
C      0.20424  0.70534  0.18302     C
H      0.20569  0.45892  0.87202     H
H      0.20569  0.54108  0.37202     H
C      0.20575  0.14375  0.61794     C
C      0.20575  0.85635  0.11794     C
O      0.20758  0.26444  0.01222     O
O      0.20758  0.73564  0.51222     O
H      0.20827  0.02418  0.28901     H
H      0.20827  0.97582  0.78901     H
C      0.20994  0.26634  0.78592     C
C      0.20994  0.73374  0.28592     C
C      0.21039  0.22994  0.60522     C
C      0.21039  0.77014  0.10522     C
N       0.2112  0.24664  0.83762     N
N       0.2112  0.75344  0.33762     N
O      0.21156  0.13794  0.13704     O
O      0.21156  0.86214  0.63704     O
H      0.21242  0.01805  0.60415     H
H      0.21242  0.98195  0.10415     H
H      0.21357  0.39064  0.17275     H
H      0.21357  0.60936  0.67275     H
C      0.21519  0.07515  0.59464     C
C      0.21519  0.92495  0.09464     C
C      0.21778  0.45054  0.27292     C
C      0.21778  0.54954  0.77292     C
C         0.22  0.48804  0.81064     C
C         0.22  0.51204  0.31064     C
C      0.22232  0.24395  0.56634     C
C      0.22232  0.75615  0.06634     C
H      0.22346  0.30071  0.55478     H
H      0.22346  0.69929  0.05478     H
C      0.22615  0.00155  0.78774     C
C      0.22615  0.99855  0.28774     C
H      0.22655   0.0905  0.06153     H
H      0.22655  0.90951  0.56153     H
N      0.22713  0.23634  0.92222     N
N      0.22713  0.76374  0.42222     N
H      0.22879  0.02882  0.21929     H
H      0.22879  0.97118  0.71929     H
C      0.22892  0.09024  0.55682     C
C      0.22892  0.90984  0.05682     C
C      0.23015  0.42425  0.19054     C
C      0.23015  0.57585  0.69054     C
H      0.23117   0.4323  0.04156     H
H      0.23117   0.5677  0.54156     H
C      0.23192  0.27524  0.71794     C
C      0.23192  0.72484  0.21794     C
H      0.23247  0.43959  0.81306     H
H      0.23247  0.56041  0.31306     H
C      0.23292  0.17355  0.54284     C
C      0.23292  0.82655  0.04284     C
C      0.23335  0.26314  0.88072     C
C      0.23335  0.73694  0.38072     C
C      0.23493  0.25954  0.76912     C
C      0.23493  0.74054  0.26912     C
C      0.23581  0.06724  0.03872     C
C      0.23581  0.93284  0.53872     C
N      0.23603  0.45974  0.23902     N
N      0.23603  0.54034  0.73902     N
C      0.23792  0.00095  0.25044     C
C      0.23792  0.99915  0.75044     C
N      0.23938  0.01914  0.53212     N
N      0.23938  0.98094  0.03212     N
H      0.24047  0.42164   0.5163     H
H      0.24047  0.57836   0.0163     H
C      0.24112  0.44625  0.01774     C
C      0.24112  0.55385  0.51774     C
H      0.24244  0.18417  0.51798     H
H      0.24244  0.81583  0.01798     H
C      0.24602  0.47355  0.50384     C
C      0.24602  0.52655  0.00384     C
H      0.24642  0.25538  0.20809     H
H      0.24642  0.74462  0.70809     H
N      0.24662  0.05167  0.82574     N
N      0.24662  0.94847  0.32574     N
N      0.24704  0.11384  0.00872     N
N      0.24704  0.88624  0.50872     N
H       0.2487  0.20937  0.11864     H
H       0.2487  0.79063  0.61864     H
H       0.2489  0.27251  0.70674     H
H       0.2489  0.72749  0.20674     H
Ni        0.25     0.25      0.0    Ni
Ni        0.25     0.75      0.5    Ni
H      0.25111  0.22749  0.29325     H
H      0.25111  0.77251  0.79326     H
H       0.2513  0.29063  0.88136     H
H       0.2513  0.70937  0.38136     H
N      0.25296  0.38624  0.99132     N
N      0.25296  0.61384  0.49132     N
N      0.25342  0.44847  0.17434     N
N      0.25342  0.55167  0.67434     N
H      0.25358  0.24462  0.79191     H
H      0.25358  0.75538  0.29191     H
C      0.25402  0.02655  0.49624     C
C      0.25402  0.97355  0.99624     C
H      0.25756  0.31583  0.48202     H
H      0.25756  0.68417  0.98202     H
C      0.25892  0.05385  0.98234     C
C      0.25892  0.94625  0.48234     C
H      0.25953  0.07836   0.4837     H
H      0.25953  0.92164   0.9837     H
N      0.26062  0.48094  0.46792     N
N      0.26062  0.51914  0.96792     N
C      0.26212  0.49915  0.74964     C
C      0.26212  0.50095  0.24964     C
N      0.26397  0.04034  0.76102     N
N      0.26397  0.95974  0.26102     N
C      0.26419  0.43284  0.96132     C
C      0.26419  0.56724  0.46132     C
C      0.26507  0.24054  0.23092     C
C      0.26507  0.75954  0.73092     C
C      0.26665  0.23694  0.11932     C
C      0.26665  0.76314  0.61932     C
C      0.26712  0.32655  0.45724     C
C      0.26712  0.67355  0.95724     C
H      0.26753  0.06041  0.18694     H
H      0.26753  0.93959  0.68694     H
C      0.26808  0.22484  0.28214     C
C      0.26808  0.77524  0.78214     C
H      0.26883   0.0677  0.95844     H
H      0.26883   0.9323  0.45844     H
C      0.26985  0.07585  0.80954     C
C      0.26985  0.92425  0.30954     C
C      0.27108  0.40984  0.44322     C
C      0.27108  0.59024  0.94322     C
H      0.27121  0.47119  0.78071     H
H      0.27121  0.52882  0.28071     H
N      0.27287  0.26374  0.07782     N
N      0.27287  0.73634  0.57782     N
H      0.27345  0.40951  0.93847     H
H      0.27345  0.59049  0.43847     H
C      0.27385  0.49855  0.21234     C
C      0.27385  0.50155  0.71234     C
H      0.27654  0.19929  0.44522     H
H      0.27654  0.80071  0.94522     H
C      0.27772  0.25615  0.43374     C
C      0.27772  0.74395  0.93374     C
C         0.28  0.01204  0.18944     C
C         0.28  0.98804  0.68944     C
C      0.28222  0.04954  0.72712     C
C      0.28222  0.95054  0.22712     C
C      0.28481  0.42495  0.40544     C
C      0.28481  0.57515  0.90544     C
H      0.28642  0.10936  0.82725     H
H      0.28642  0.89064  0.32725     H
H      0.28758  0.48195  0.39585     H
H      0.28758  0.51805  0.89585     H
O      0.28844  0.36214  0.86296     O
O      0.28844  0.63794  0.36296     O
N       0.2888  0.25344  0.16242     N
N       0.2888  0.74664  0.66242     N
C      0.28961  0.27014  0.39482     C
C      0.28961  0.72994  0.89482     C
C      0.29006  0.23374  0.21412     C
C      0.29006  0.76634  0.71412     C
H      0.29173  0.47582  0.71099     H
H      0.29173  0.52418  0.21099     H
O      0.29242  0.23564  0.98782     O
O      0.29242  0.76444  0.48782     O
C      0.29425  0.35635  0.38214     C
C      0.29425  0.64375  0.88214     C
H      0.29431  0.04108  0.12798     H
H      0.29431  0.95892  0.62798     H
C      0.29576  0.20534  0.31702     C
C      0.29576  0.79474  0.81702     C
H      0.29631    0.213  0.60933     H
H      0.29631    0.787  0.10933     H
C      0.29663  0.00144  0.15474     C
C      0.29663  0.99864  0.65474     C
H      0.29746  0.18399  0.99104     H
H      0.29746  0.81602  0.49104     H
N      0.29884  0.19704  0.37023     N
N      0.29884  0.80304  0.87023     N
C      0.30108  0.30077  0.09664     C
C      0.30108  0.69937  0.59664     C
H      0.30193  0.35224  0.57739     H
H      0.30193  0.64776  0.07739     H
C      0.30246  0.11794  0.73334     C
C      0.30246  0.88214  0.23334     C
H      0.30391  0.36718  0.35751     H
H      0.30391  0.63282  0.85751     H
H       0.3044  0.15828  0.75961     H
H       0.3044  0.84172  0.25961     H
O      0.30472  0.22234  0.90272     O
O      0.30472  0.77774  0.40272     O
H      0.31062  0.03515  0.35922     H
H      0.31062  0.96485  0.85922     H
C      0.31131  0.29547  0.14714     C
C      0.31131  0.70467  0.64714     C
H      0.31159  0.32614  0.07615     H
H      0.31159  0.67386  0.57615     H
C      0.31327  0.22604  0.59944     C
C      0.31327  0.77404  0.09944     C
S      0.31386  0.30125  0.87921     S
S      0.31386  0.69875  0.37921     S
C      0.31653  0.30954  0.57984     C
C      0.31653  0.69054  0.07984     C
C      0.31655  0.06824  0.66022     C
C      0.31655  0.93184  0.16022     C
C      0.31761  0.20745  0.24734     C
C      0.31761  0.79265  0.74734     C
H       0.3191  0.49687  0.57378     H
H       0.3191  0.50313  0.07378     H
C      0.31967  0.12614  0.70082     C
C      0.31967  0.87394  0.20082     C
C      0.32004  0.19424  0.29822     C
C      0.32004  0.80584  0.79822     C
O      0.32344  0.27434  0.83503     O
O      0.32344  0.72574  0.33503     O
C      0.32409  0.14634  0.39942     C
C      0.32409  0.85374  0.89942     C
C      0.32672  0.06124  0.38384     C
C      0.32672  0.93884  0.88384     C
H      0.32727  0.03143  0.53043     H
H      0.32727  0.96857  0.03043     H
H      0.32977  0.31561  0.16828     H
H      0.32977  0.68439  0.66827     H
H      0.33036   0.4585  0.83571     H
H      0.33036   0.5415  0.33571     H
C      0.33078  0.48894  0.55194     C
C      0.33078  0.51114  0.05194     C
H      0.33221  0.39147  0.02057     H
H      0.33221  0.60853  0.52057     H
N      0.33253  0.08014  0.62432     N
N      0.33253  0.91994  0.12432     N
H       0.3337  0.17119  0.70588     H
H       0.3337  0.82881  0.20588     H
H      0.33412  0.80116  0.73533     H
H      0.33413  0.19884  0.23533     H
C      0.33532  0.16344  0.60372     C
C      0.33532  0.83664  0.10372     C
H      0.33659  0.42271  0.27969     H
H      0.33659  0.57729  0.77969     H
C      0.33826  0.44974  0.02252     C
C      0.33826  0.55034  0.52252     C
H      0.33854  0.17723  0.32073     H
H      0.33854  0.82277  0.82073     H
O      0.33888  0.34464  0.91864     O
O      0.33888  0.65544  0.41864     O
C      0.33962  0.00744  0.05374     C
C      0.33962  0.99264  0.55374     C
C      0.34134  0.32744  0.56452     C
C      0.34134  0.67264  0.06452     C
N      0.34375  0.41254  0.54302     N
N      0.34375  0.58754  0.04302     N
H      0.34432  0.23491  0.45429     H
H      0.34432  0.76509  0.95429     H
C      0.34473  0.49734  0.34492     C
C      0.34473  0.50274  0.84492     C
C      0.34503  0.00504  0.60602     C
C      0.34503  0.99504  0.10602     C
C      0.34666  0.18034  0.44102     C
C      0.34666  0.81974  0.94102     C
C      0.34817  0.43214  0.31362     C
C      0.34817  0.56794  0.81362     C
H      0.34877  0.08541  0.00097     H
H      0.34877  0.91459  0.50097     H
H      0.35235  0.24558  0.98834     H
H      0.35235  0.75442  0.48834     H
C      0.35248  0.07714  0.03612     C
C      0.35248  0.92294  0.53612     C
C      0.35283  0.01534  0.40432     C
C      0.35283  0.98474  0.90432     C
H      0.35481  0.04039  0.89188     H
H      0.35481  0.95961  0.39188     H
N      0.35614  0.48564  0.99598     N
N      0.35614  0.51444  0.49598     N
C      0.35919  0.43204  0.50942     C
C      0.35919  0.56804  0.00942     C
C      0.36027  0.18494  0.58882     C
C      0.36027  0.81514  0.08882     C
C      0.36309  0.05275  0.13964     C
C      0.36309  0.94735  0.63964     C
C      0.36336  0.26574  0.56952     C
C      0.36336  0.73434  0.06952     C
N      0.36579  0.48804  0.39265     N
N      0.36579  0.51204  0.89265     N
H      0.36676   0.0445  0.17476     H
H      0.36676   0.9555  0.67475     H
H      0.36987  0.14235  0.81556     H
H      0.36987  0.85765  0.31556     H
H      0.37052  0.39176  0.49749     H
H      0.37052  0.60824  0.99748     H
C       0.3708  0.13444  0.07042     C
C       0.3708  0.86564  0.57042     C
C      0.37155  0.25574  0.01082     C
C      0.37155  0.74434  0.51082     C
H       0.3721  0.00657  0.77941     H
H       0.3721  0.99343  0.27941     H
N      0.37255  0.38194  0.34216     N
N      0.37255  0.61814  0.84216     N
C      0.37261  0.13204  0.46232     C
C      0.37261  0.86804  0.96232     C
H      0.37537  0.14343   0.5921     H
H      0.37537  0.85657  0.09209     H
C      0.37599  0.12294  0.12262     C
C      0.37599  0.87714  0.62262     C
C      0.37625  0.05064  0.44312     C
C      0.37625  0.94944  0.94312     C
Ni     0.37733  0.41788  0.95008    Ni
Ni     0.37733  0.58212  0.45008    Ni
H      0.37972   0.2348  0.89583     H
H      0.37972   0.7652  0.39583     H
H      0.37973  0.35003  0.25349     H
H      0.37973  0.64997  0.75349     H
H      0.38039  0.27867  0.55974     H
H      0.38039  0.72133  0.05974     H
C      0.38231  0.41944  0.39012     C
C      0.38231  0.58064  0.89012     C
N      0.38466  0.20634  0.05262     N
N      0.38466  0.79374  0.55262     N
C      0.38494  0.30744  0.32492     C
C      0.38494  0.69264  0.82492     C
C      0.38633  0.30294  0.27562     C
C      0.38633  0.69714  0.77562     C
H      0.38779  0.15465  0.48992     H
H      0.38779  0.84535  0.98992     H
H      0.38807  0.16216   0.1459     H
H      0.38807  0.83784   0.6459     H
C      0.38842  0.11694  0.81802     C
C      0.38842  0.88314  0.31802     C
N      0.38918  0.31964  0.00562     N
N      0.38918  0.68044  0.50562     N
C      0.38986  0.03614  0.79612     C
C      0.38986  0.96394  0.29612     C
H       0.3939  0.12572  0.96218     H
H       0.3939  0.87428  0.46218     H
H      0.39456  0.24098  0.39206     H
H      0.39456  0.75902  0.89206     H
C      0.39478  0.27004  0.89042     C
C      0.39478  0.73004  0.39042     C
C      0.39526  0.23784  0.35842     C
C      0.39526  0.76224  0.85842     C
C      0.39729  0.23004  0.25842     C
C      0.39729  0.77004  0.75842     C
H      0.39793  0.22776  0.22465     H
H      0.39793  0.77224  0.72465     H
H       0.3984  0.39898  0.41709     H
H       0.3984  0.60102  0.91709     H
N      0.39949  0.35134  0.90602     N
N      0.39949  0.64874  0.40602     N
N      0.40403  0.00604  0.45978     N
N      0.40403  0.99404  0.95978     N
C      0.40661  0.16354  0.34152     C
C      0.40661  0.83654  0.84152     C
C      0.40748  0.15924  0.29092     C
C      0.40748  0.84084  0.79092     C
C      0.40861  0.08294  0.96564     C
C      0.40861  0.91714  0.46564     C
C      0.41299  0.23755  0.07404     C
C      0.41299  0.76255  0.57404     C
H      0.41359  0.11679   0.3638     H
H      0.41359  0.88321  0.86381     H
N        0.414  0.24324  0.86572     N
N        0.414  0.75684  0.36572     N
C      0.41505  0.15954  0.84362     C
C      0.41505  0.84054  0.34362     C
C      0.41518  0.30825  0.04494     C
C      0.41518  0.69185  0.54494     C
O      0.41636  0.48894  0.98651     O
O      0.41636  0.51114  0.48651     O
C      0.41712  0.00154  0.29862     C
C      0.41712  0.99854  0.79862     C
N      0.41887  0.08244  0.27422     N
N      0.41887  0.91764  0.77422     N
C      0.42262  0.37945  0.88824     C
C      0.42262  0.62065  0.38824     C
H      0.42775  0.21535  0.10238     H
H      0.42775  0.78465  0.60238     H
H        0.429  0.03783  0.71416     H
H        0.429  0.96217  0.21416     H
H      0.43038  0.47065  0.97703     H
H      0.43038  0.52935  0.47703     H
H      0.43071  0.43554  0.89241     H
H      0.43071  0.56446  0.39241     H
C      0.43177  0.31364  0.86404     C
C      0.43177  0.68644  0.36404     C
H      0.43212  0.34375    0.051     H
H      0.43212  0.65625    0.551     H
C      0.43218  0.04244  0.46762     C
C      0.43218  0.95764  0.96762     C
H      0.43569  0.10207  0.46567     H
H      0.43569  0.89793  0.96567     H
C      0.43633  0.08774  0.24032     C
C      0.43633  0.91234  0.74032     C
C      0.43859  0.09584  0.97724     C
C      0.43859  0.90424  0.47724     C
C      0.43893  0.01374  0.21102     C
C      0.43893  0.98634  0.71102     C
C      0.44229  0.12244  0.84742     C
C      0.44229  0.87764  0.34742     C
C      0.44372  0.04204  0.82522     C
C      0.44372  0.95804  0.32522     C
H      0.44721  0.31552  0.84895     H
H      0.44721  0.68448  0.34895     H
H      0.44803  0.15012  0.98365     H
H      0.44803  0.84988  0.48366     H
H      0.45115  0.21134  0.25488     H
H      0.45115  0.78866  0.75488     H
C      0.45179  0.16264  0.23492     C
C      0.45179  0.83744  0.73492     C
N      0.45329  0.01724  0.97818     N
N      0.45329  0.98284  0.47818     N
C      0.45593  0.01704  0.17794     C
C      0.45593  0.98304  0.67794     C
H      0.45794  0.03277  0.65963     H
H      0.45794  0.96723  0.15963     H
H      0.45999  0.15126  0.86511     H
H      0.45999  0.84874  0.36511     H
H      0.46234  0.01676  0.82786     H
H      0.46234  0.98324  0.32787     H
C      0.46819  0.16654  0.20032     C
C      0.46819  0.83354  0.70032     C
C      0.47003  0.09324  0.17152     C
C      0.47003  0.90684  0.67152     C
H      0.47073   0.1692  0.42257     H
H      0.47073   0.8308  0.92257     H
H       0.4708  0.00557  0.58836     H
H       0.4708  0.99443  0.08836     H
H      0.47791  0.21803  0.19638     H
H      0.47791  0.78197  0.69638     H
C      0.48352  0.04284  0.09512     C
C      0.48352  0.95724  0.59512     C
C      0.48453  0.13844  0.41072     C
C      0.48453  0.86164  0.91072     C
N      0.48618  0.09864   0.1346     N
N      0.48618  0.90144   0.6346     N
H      0.48625  0.20822  0.34679     H
H      0.48625  0.79178  0.84679     H
C      0.49305  0.16094  0.36862     C
C      0.49305  0.83914  0.86862     C
H      0.49375   0.1587  0.51366     H
H      0.49375   0.8413  0.01366     H
O      0.49402  0.11854  0.53368     O
O      0.49402  0.88154  0.03368     O
N      0.49914  0.06494  0.43242     N
N      0.49914  0.93514  0.93242     N
Ni         0.5      0.0      0.0    Ni
Ni         0.5      0.0      0.5    Ni
N      0.50086  0.06494  0.06762     N
N      0.50086  0.93514  0.56762     N
O      0.50598  0.11854  0.96632     O
O      0.50598  0.88154  0.46632     O
H      0.50625   0.1587  0.98634     H
H      0.50625   0.8413  0.48634     H
C      0.50695  0.16094  0.13142     C
C      0.50695  0.83914  0.63142     C
H      0.51375  0.20822  0.15321     H
H      0.51375  0.79178  0.65321     H
N      0.51382  0.09864   0.3654     N
N      0.51382  0.90144   0.8654     N
C      0.51547  0.13844  0.08932     C
C      0.51547  0.86164  0.58932     C
C      0.51648  0.04284  0.40492     C
C      0.51648  0.95724  0.90492     C
H      0.52209  0.21803  0.30362     H
H      0.52209  0.78197  0.80362     H
H       0.5292  0.00557  0.91164     H
H       0.5292  0.99443  0.41164     H
H      0.52927   0.1692  0.07743     H
H      0.52927   0.8308  0.57743     H
C      0.52997  0.09324  0.32852     C
C      0.52997  0.90684  0.82852     C
C      0.53181  0.16654  0.29972     C
C      0.53181  0.83354  0.79972     C
H      0.53766  0.01676  0.67213     H
H      0.53766  0.98324  0.17214     H
H      0.54001  0.15126  0.63489     H
H      0.54001  0.84874  0.13489     H
H      0.54206  0.03277  0.84037     H
H      0.54206  0.96723  0.34037     H
C      0.54407  0.01704  0.32214     C
C      0.54407  0.98304  0.82214     C
N      0.54671  0.01724  0.52182     N
N      0.54671  0.98284  0.02182     N
C      0.54821  0.16264  0.26512     C
C      0.54821  0.83744  0.76512     C
H      0.54885  0.21134  0.24512     H
H      0.54885  0.78866  0.74512     H
H      0.55197  0.15012  0.51635     H
H      0.55197  0.84988  0.01634     H
H      0.55278  0.31552  0.65105     H
H      0.55278  0.68448  0.15105     H
C      0.55628  0.04204  0.67482     C
C      0.55628  0.95804  0.17482     C
C      0.55771  0.12244  0.65262     C
C      0.55771  0.87764  0.15262     C
C      0.56107  0.01374  0.28902     C
C      0.56107  0.98634  0.78902     C
C      0.56141  0.09584  0.52284     C
C      0.56141  0.90424  0.02284     C
C      0.56367  0.08774  0.25972     C
C      0.56367  0.91234  0.75972     C
H      0.56431  0.10207  0.03433     H
H      0.56431  0.89793  0.53433     H
C      0.56782  0.04244  0.03242     C
C      0.56782  0.95764  0.53242     C
H      0.56788  0.34375    0.449     H
H      0.56788  0.65625    0.949     H
C      0.56823  0.31364  0.63604     C
C      0.56823  0.68644  0.13604     C
H      0.56929  0.43554  0.60759     H
H      0.56929  0.56446  0.10759     H
H      0.56962  0.47065  0.52297     H
H      0.56962  0.52935  0.02297     H
H        0.571  0.03783  0.78584     H
H        0.571  0.96217  0.28584     H
H      0.57225  0.21535  0.39762     H
H      0.57225  0.78465  0.89762     H
C      0.57738  0.37945  0.61184     C
C      0.57738  0.62065  0.11184     C
N      0.58113  0.08244  0.22582     N
N      0.58113  0.91764  0.72582     N
C      0.58288  0.00154  0.20142     C
C      0.58288  0.99854  0.70142     C
O      0.58366  0.48894  0.51349     O
O      0.58366  0.51114  0.01349     O
C      0.58482  0.30825  0.45514     C
C      0.58482  0.69185  0.95514     C
C      0.58495  0.15954  0.65642     C
C      0.58495  0.84054  0.15642     C
N        0.586  0.24324  0.63432     N
N        0.586  0.75684  0.13432     N
H      0.58641  0.11679   0.1362     H
H      0.58641  0.88321  0.63619     H
C      0.58701  0.23755  0.42604     C
C      0.58701  0.76255  0.92604     C
C      0.59139  0.08294  0.53444     C
C      0.59139  0.91714  0.03444     C
C      0.59252  0.15924  0.20912     C
C      0.59252  0.84084  0.70912     C
C      0.59339  0.16354  0.15852     C
C      0.59339  0.83654  0.65852     C
N      0.59597  0.00604  0.04022     N
N      0.59597  0.99404  0.54022     N
N      0.60051  0.35134  0.59402     N
N      0.60051  0.64874  0.09402     N
H       0.6016  0.39898   0.0829     H
H       0.6016  0.60102  0.58291     H
H      0.60206  0.22776  0.27535     H
H      0.60206  0.77224  0.77535     H
C      0.60271  0.23004  0.24162     C
C      0.60271  0.77004  0.74162     C
C      0.60474  0.23784  0.14162     C
C      0.60474  0.76224  0.64162     C
C      0.60522  0.27004  0.60962     C
C      0.60522  0.73004  0.10962     C
H      0.60544  0.24098  0.10794     H
H      0.60544  0.75902  0.60794     H
H       0.6061  0.12572  0.53782     H
H       0.6061  0.87428  0.03782     H
C      0.61014  0.03614  0.70392     C
C      0.61014  0.96394  0.20392     C
N      0.61082  0.31964  0.49442     N
N      0.61082  0.68044  0.99442     N
C      0.61158  0.11694  0.68202     C
C      0.61158  0.88314  0.18202     C
H      0.61193  0.16216   0.3541     H
H      0.61193  0.83784   0.8541     H
H      0.61221  0.15465  0.01008     H
H      0.61221  0.84535  0.51008     H
C      0.61367  0.30294  0.22442     C
C      0.61367  0.69714  0.72442     C
C      0.61506  0.30744  0.17512     C
C      0.61506  0.69264  0.67512     C
N      0.61534  0.20634  0.44742     N
N      0.61534  0.79374  0.94742     N
C      0.61769  0.41944  0.10992     C
C      0.61769  0.58064  0.60992     C
H      0.61961  0.27867  0.94026     H
H      0.61961  0.72133  0.44026     H
H      0.62027  0.35003  0.24651     H
H      0.62027  0.64997  0.74651     H
H      0.62028   0.2348  0.60417     H
H      0.62028   0.7652  0.10417     H
Ni     0.62267  0.41788  0.54992    Ni
Ni     0.62267  0.58212  0.04992    Ni
C      0.62375  0.05064  0.05692     C
C      0.62375  0.94944  0.55692     C
C      0.62401  0.12294  0.37742     C
C      0.62401  0.87714  0.87742     C
H      0.62463  0.14343   0.9079     H
H      0.62463  0.85657   0.4079     H
C      0.62739  0.13204  0.03772     C
C      0.62739  0.86804  0.53772     C
N      0.62745  0.38194  0.15784     N
N      0.62745  0.61814  0.65784     N
H       0.6279  0.00657  0.72059     H
H       0.6279  0.99343  0.22059     H
C      0.62845  0.25574  0.48922     C
C      0.62845  0.74434  0.98922     C
C       0.6292  0.13444  0.42962     C
C       0.6292  0.86564  0.92962     C
H      0.62948  0.39176  0.00251     H
H      0.62948  0.60824  0.50252     H
H      0.63013  0.14235  0.68444     H
H      0.63013  0.85765  0.18444     H
H      0.63324   0.0445  0.32525     H
H      0.63324   0.9555  0.82525     H
N      0.63421  0.48804  0.10735     N
N      0.63421  0.51204  0.60735     N
C      0.63664  0.26574  0.93052     C
C      0.63664  0.73434  0.43052     C
C      0.63691  0.05275  0.36044     C
C      0.63691  0.94735  0.86044     C
C      0.63973  0.18494  0.91122     C
C      0.63973  0.81514  0.41122     C
C      0.64081  0.43204  0.99062     C
C      0.64081  0.56804  0.49062     C
N      0.64386  0.48564  0.50402     N
N      0.64386  0.51444  0.00402     N
H      0.64519  0.04039  0.60812     H
H      0.64519  0.95961  0.10812     H
C      0.64717  0.01534  0.09572     C
C      0.64717  0.98474  0.59572     C
C      0.64752  0.07714  0.46392     C
C      0.64752  0.92294  0.96392     C
H      0.64765  0.24558  0.51166     H
H      0.64765  0.75442  0.01166     H
H      0.65123  0.08541  0.49903     H
H      0.65123  0.91459  0.99903     H
C      0.65183  0.43214  0.18642     C
C      0.65183  0.56794  0.68642     C
C      0.65334  0.18034  0.05902     C
C      0.65334  0.81974  0.55902     C
C      0.65497  0.00504  0.89402     C
C      0.65497  0.99504  0.39402     C
C      0.65527  0.49734  0.15512     C
C      0.65527  0.50274  0.65512     C
H      0.65568  0.23491  0.04571     H
H      0.65568  0.76509  0.54571     H
N      0.65625  0.41254  0.95698     N
N      0.65625  0.58754  0.45698     N
C      0.65866  0.32744  0.93552     C
C      0.65866  0.67264  0.43552     C
C      0.66038  0.00744  0.44634     C
C      0.66038  0.99264  0.94634     C
O      0.66114  0.34464  0.58136     O
O      0.66114  0.65544  0.08136     O
H      0.66146  0.17723  0.17926     H
H      0.66146  0.82277  0.67927     H
C      0.66174  0.44974  0.47752     C
C      0.66174  0.55034  0.97752     C
H      0.66341  0.42271  0.22031     H
H      0.66341  0.57729  0.72031     H
C      0.66468  0.16344  0.89632     C
C      0.66468  0.83664  0.39632     C
H      0.66587  0.19884  0.26467     H
H      0.66587  0.80116  0.76467     H
H       0.6663  0.17119  0.79412     H
H      0.66631  0.82881  0.29412     H
N      0.66747  0.08014  0.87572     N
N      0.66747  0.91994  0.37572     N
H      0.66779  0.39147  0.47943     H
H      0.66779  0.60853  0.97943     H
C      0.66922  0.48894  0.94814     C
C      0.66922  0.51114  0.44814     C
H      0.66964   0.4585  0.66429     H
H      0.66964   0.5415  0.16429     H
H      0.67023  0.31561  0.33172     H
H      0.67023  0.68439  0.83173     H
H      0.67273  0.03143  0.96957     H
H      0.67273  0.96857  0.46957     H
C      0.67328  0.06124  0.11624     C
C      0.67328  0.93884  0.61624     C
C      0.67591  0.14634  0.10062     C
C      0.67591  0.85374  0.60062     C
O      0.67656  0.27434  0.66497     O
O      0.67656  0.72574  0.16497     O
C      0.67996  0.19424  0.20182     C
C      0.67996  0.80584  0.70182     C
C      0.68033  0.12614  0.79922     C
C      0.68033  0.87394  0.29922     C
H       0.6809  0.49687  0.92622     H
H       0.6809  0.50313  0.42622     H
C      0.68239  0.20745  0.25274     C
C      0.68239  0.79265  0.75274     C
C      0.68345  0.06824  0.83982     C
C      0.68345  0.93184  0.33982     C
C      0.68347  0.30954  0.92024     C
C      0.68347  0.69054  0.42024     C
S      0.68614  0.30125  0.62081     S
S      0.68614  0.69875  0.12081     S
C      0.68673  0.22604  0.90064     C
C      0.68673  0.77404  0.40064     C
H      0.68841  0.32614  0.42385     H
H      0.68841  0.67386  0.92385     H
C      0.68869  0.29547  0.35294     C
C      0.68869  0.70467  0.85294     C
H      0.68938  0.03515  0.14078     H
H      0.68938  0.96485  0.64078     H
O      0.69528  0.22234  0.59732     O
O      0.69528  0.77774  0.09732     O
H       0.6956  0.15828  0.74039     H
H       0.6956  0.84172  0.24039     H
H      0.69609  0.36718  0.14249     H
H      0.69609  0.63282  0.64249     H
C      0.69754  0.11794  0.76674     C
C      0.69754  0.88214  0.26674     C
H      0.69807  0.35224  0.92261     H
H      0.69807  0.64776  0.42261     H
C      0.69892  0.30077  0.40344     C
C      0.69892  0.69937  0.90344     C
N      0.70116  0.19704  0.12977     N
N      0.70116  0.80304  0.62977     N
H      0.70254  0.18399  0.50896     H
H      0.70254  0.81602  0.00896     H
C      0.70337  0.00144  0.34534     C
C      0.70337  0.99864  0.84534     C
H      0.70369    0.213  0.89067     H
H      0.70369    0.787  0.39067     H
C      0.70424  0.20534  0.18302     C
C      0.70424  0.79474  0.68302     C
H      0.70569  0.04108  0.37202     H
H      0.70569  0.95892  0.87202     H
C      0.70575  0.35635  0.11794     C
C      0.70575  0.64375  0.61794     C
O      0.70758  0.23564  0.51222     O
O      0.70758  0.76444  0.01222     O
H      0.70827  0.47582  0.78901     H
H      0.70827  0.52418  0.28901     H
C      0.70994  0.23374  0.28592     C
C      0.70994  0.76634  0.78592     C
C      0.71039  0.27014  0.10522     C
C      0.71039  0.72994  0.60522     C
N       0.7112  0.25344  0.33762     N
N       0.7112  0.74664  0.83762     N
O      0.71156  0.36214  0.63704     O
O      0.71156  0.63794  0.13704     O
H      0.71242  0.48195  0.10415     H
H      0.71242  0.51805  0.60415     H
H      0.71357  0.10936  0.67275     H
H      0.71357  0.89064  0.17275     H
C      0.71519  0.42495  0.09464     C
C      0.71519  0.57515  0.59464     C
C      0.71778  0.04954  0.77292     C
C      0.71778  0.95054  0.27292     C
C         0.72  0.01204  0.31064     C
C         0.72  0.98804  0.81064     C
C      0.72232  0.25615  0.06634     C
C      0.72232  0.74395  0.56634     C
H      0.72346  0.19929  0.05478     H
H      0.72346  0.80071  0.55478     H
C      0.72615  0.49855  0.28774     C
C      0.72615  0.50155  0.78774     C
H      0.72655  0.40951  0.56153     H
H      0.72655  0.59049  0.06153     H
N      0.72713  0.26374  0.42222     N
N      0.72713  0.73634  0.92222     N
H      0.72879  0.47119  0.71929     H
H      0.72879  0.52882  0.21929     H
C      0.72892  0.40984  0.05682     C
C      0.72892  0.59024  0.55682     C
C      0.73015  0.07585  0.69054     C
C      0.73015  0.92425  0.19054     C
H      0.73117   0.0677  0.54156     H
H      0.73117   0.9323  0.04156     H
C      0.73192  0.22484  0.21794     C
C      0.73192  0.77524  0.71794     C
H      0.73247  0.06041  0.31306     H
H      0.73247  0.93959  0.81306     H
C      0.73292  0.32655  0.04284     C
C      0.73292  0.67355  0.54284     C
C      0.73335  0.23694  0.38072     C
C      0.73335  0.76314  0.88072     C
C      0.73493  0.24054  0.26912     C
C      0.73493  0.75954  0.76912     C
C      0.73581  0.43284  0.53872     C
C      0.73581  0.56724  0.03872     C
N      0.73603  0.04034  0.73902     N
N      0.73603  0.95974  0.23902     N
C      0.73792  0.49915  0.75044     C
C      0.73792  0.50095  0.25044     C
N      0.73938  0.48094  0.03212     N
N      0.73938  0.51914  0.53212     N
H      0.74047  0.07836   0.0163     H
H      0.74047  0.92164   0.5163     H
C      0.74112  0.05385  0.51774     C
C      0.74112  0.94625  0.01774     C
H      0.74244  0.31583  0.01798     H
H      0.74244  0.68417  0.51798     H
C      0.74602  0.02655  0.00384     C
C      0.74602  0.97355  0.50384     C
H      0.74642  0.24462  0.70809     H
H      0.74642  0.75538  0.20809     H
N      0.74662  0.44847  0.32574     N
N      0.74662  0.55167  0.82574     N
N      0.74704  0.38624  0.50872     N
N      0.74704  0.61384  0.00872     N
H       0.7487  0.29063  0.61864     H
H       0.7487  0.70937  0.11864     H
H       0.7489  0.22749  0.20674     H
H       0.7489  0.77251  0.70674     H
Ni        0.75     0.25      0.5    Ni
Ni        0.75     0.75      0.0    Ni
H      0.75111  0.27251  0.79326     H
H      0.75111  0.72749  0.29325     H
H       0.7513  0.20937  0.38136     H
H       0.7513  0.79063  0.88136     H
N      0.75296  0.11384  0.49132     N
N      0.75296  0.88624  0.99132     N
N      0.75342  0.05167  0.67434     N
N      0.75342  0.94847  0.17434     N
H      0.75358  0.25538  0.29191     H
H      0.75358  0.74462  0.79191     H
C      0.75402  0.47355  0.99624     C
C      0.75402  0.52655  0.49624     C
H      0.75756  0.18417  0.98202     H
H      0.75756  0.81583  0.48202     H
C      0.75892  0.44625  0.48234     C
C      0.75892  0.55385  0.98234     C
H      0.75953  0.42164   0.9837     H
H      0.75953  0.57836   0.4837     H
N      0.76062  0.01914  0.96792     N
N      0.76062  0.98094  0.46792     N
C      0.76212  0.00095  0.24964     C
C      0.76212  0.99915  0.74964     C
N      0.76397  0.45974  0.26102     N
N      0.76397  0.54034  0.76102     N
C      0.76419  0.06724  0.46132     C
C      0.76419  0.93284  0.96132     C
C      0.76507  0.25954  0.73092     C
C      0.76507  0.74054  0.23092     C
C      0.76665  0.26314  0.61932     C
C      0.76665  0.73694  0.11932     C
C      0.76712  0.17355  0.95724     C
C      0.76712  0.82655  0.45724     C
H      0.76753  0.43959  0.68694     H
H      0.76753  0.56041  0.18694     H
C      0.76808  0.27524  0.78214     C
C      0.76808  0.72484  0.28214     C
H      0.76883   0.4323  0.45844     H
H      0.76883   0.5677  0.95844     H
C      0.76985  0.42425  0.30954     C
C      0.76985  0.57585  0.80954     C
C      0.77108  0.09024  0.94322     C
C      0.77108  0.90984  0.44322     C
H      0.77121  0.02882  0.28071     H
H      0.77121  0.97118  0.78071     H
N      0.77287  0.23634  0.57782     N
N      0.77287  0.76374  0.07782     N
H      0.77345   0.0905  0.43847     H
H      0.77345  0.90951  0.93847     H
C      0.77385  0.00155  0.71234     C
C      0.77385  0.99855  0.21234     C
H      0.77654  0.30071  0.94522     H
H      0.77654  0.69929  0.44522     H
C      0.77772  0.24395  0.93374     C
C      0.77772  0.75615  0.43374     C
C         0.78  0.48804  0.68944     C
C         0.78  0.51204  0.18944     C
C      0.78222  0.45054  0.22712     C
C      0.78222  0.54954  0.72712     C
C      0.78481  0.07515  0.90544     C
C      0.78481  0.92495  0.40544     C
H      0.78642  0.39064  0.32725     H
H      0.78642  0.60936  0.82725     H
H      0.78758  0.01805  0.89585     H
H      0.78758  0.98195  0.39585     H
O      0.78844  0.13794  0.36296     O
O      0.78844  0.86214  0.86296     O
N       0.7888  0.24664  0.66242     N
N       0.7888  0.75344  0.16242     N
C      0.78961  0.22994  0.89482     C
C      0.78961  0.77014  0.39482     C
C      0.79006  0.26634  0.71412     C
C      0.79006  0.73374  0.21412     C
H      0.79173  0.02418  0.21099     H
H      0.79173  0.97582  0.71099     H
O      0.79242  0.26444  0.48782     O
O      0.79242  0.73564  0.98782     O
C      0.79425  0.14375  0.88214     C
C      0.79425  0.85635  0.38214     C
H      0.79431  0.45892  0.62798     H
H      0.79431  0.54108  0.12798     H
C      0.79576  0.29474  0.81702     C
C      0.79576  0.70534  0.31702     C
H      0.79631    0.287  0.10933     H
H      0.79631    0.713  0.60933     H
C      0.79663  0.49864  0.65474     C
C      0.79663  0.50144  0.15474     C
H      0.79746  0.31601  0.49104     H
H      0.79746  0.68398  0.99104     H
N      0.79884  0.30304  0.87023     N
N      0.79884  0.69704  0.37023     N
C      0.80108  0.19937  0.59664     C
C      0.80108  0.80077  0.09664     C
H      0.80193  0.14776  0.07739     H
H      0.80193  0.85224  0.57739     H
C      0.80246  0.38214  0.23334     C
C      0.80246  0.61794  0.73334     C
H      0.80391  0.13282  0.85751     H
H      0.80391  0.86718  0.35751     H
H       0.8044  0.34172  0.25961     H
H       0.8044  0.65828  0.75961     H
O      0.80472  0.27774  0.40272     O
O      0.80472  0.72234  0.90272     O
H      0.81062  0.46485  0.85922     H
H      0.81062  0.53515  0.35922     H
C      0.81131  0.20467  0.64714     C
C      0.81131  0.79547  0.14714     C
H      0.81159  0.17386  0.57615     H
H      0.81159  0.82614  0.07615     H
C      0.81327  0.27404  0.09944     C
C      0.81327  0.72604  0.59944     C
S      0.81386  0.19875  0.37921     S
S      0.81386  0.80125  0.87921     S
C      0.81653  0.19054  0.07984     C
C      0.81653  0.80954  0.57984     C
C      0.81655  0.43184  0.16022     C
C      0.81655  0.56824  0.66022     C
C      0.81761  0.29265  0.74734     C
C      0.81761  0.70745  0.24734     C
H       0.8191  0.00313  0.07378     H
H       0.8191  0.99687  0.57378     H
C      0.81967  0.37394  0.20082     C
C      0.81967  0.62614  0.70082     C
C      0.82004  0.30584  0.79822     C
C      0.82004  0.69424  0.29822     C
O      0.82344  0.22574  0.33503     O
O      0.82344  0.77434  0.83503     O
C      0.82409  0.35374  0.89942     C
C      0.82409  0.64634  0.39942     C
C      0.82672  0.43884  0.88384     C
C      0.82672  0.56124  0.38384     C
H      0.82727  0.46857  0.03043     H
H      0.82727  0.53143  0.53043     H
H      0.82977  0.18439  0.66827     H
H      0.82977  0.81561  0.16828     H
H      0.83036   0.0415  0.33571     H
H      0.83036   0.9585  0.83571     H
C      0.83078  0.01114  0.05194     C
C      0.83078  0.98894  0.55194     C
H      0.83221  0.10853  0.52057     H
H      0.83221  0.89147  0.02057     H
N      0.83253  0.41994  0.12432     N
N      0.83253  0.58014  0.62432     N
H      0.83369  0.32881  0.20588     H
H      0.83369  0.67119  0.70588     H
H      0.83412  0.30116  0.73533     H
H      0.83413  0.69884  0.23533     H
C      0.83532  0.33664  0.10372     C
C      0.83532  0.66344  0.60372     C
H      0.83659  0.07729  0.77969     H
H      0.83659  0.92271  0.27969     H
C      0.83826  0.05034  0.52252     C
C      0.83826  0.94974  0.02252     C
H      0.83854  0.32277  0.82073     H
H      0.83854  0.67723  0.32073     H
O      0.83888  0.15544  0.41864     O
O      0.83888  0.84464  0.91864     O
C      0.83962  0.49264  0.55374     C
C      0.83962  0.50744  0.05374     C
C      0.84134  0.17264  0.06452     C
C      0.84134  0.82744  0.56452     C
N      0.84375  0.08754  0.04302     N
N      0.84375  0.91254  0.54302     N
H      0.84432  0.26509  0.95429     H
H      0.84432  0.73491  0.45429     H
C      0.84473  0.00274  0.84492     C
C      0.84473  0.99734  0.34492     C
C      0.84503  0.49504  0.10602     C
C      0.84503  0.50504  0.60602     C
C      0.84666  0.31974  0.94102     C
C      0.84666  0.68034  0.44102     C
C      0.84817  0.06794  0.81362     C
C      0.84817  0.93214  0.31362     C
H      0.84877  0.41459  0.50097     H
H      0.84877  0.58541  0.00097     H
H      0.85235  0.25442  0.48834     H
H      0.85235  0.74558  0.98834     H
C      0.85248  0.42294  0.53612     C
C      0.85248  0.57714  0.03612     C
C      0.85283  0.48474  0.90432     C
C      0.85283  0.51534  0.40432     C
H      0.85481  0.45961  0.39188     H
H      0.85481  0.54039  0.89188     H
N      0.85614  0.01444  0.49598     N
N      0.85614  0.98564  0.99598     N
C      0.85919  0.06804  0.00942     C
C      0.85919  0.93204  0.50942     C
C      0.86027  0.31514  0.08882     C
C      0.86027  0.68494  0.58882     C
C      0.86309  0.44735  0.63964     C
C      0.86309  0.55275  0.13964     C
C      0.86336  0.23434  0.06952     C
C      0.86336  0.76574  0.56952     C
N      0.86579  0.01204  0.89265     N
N      0.86579  0.98804  0.39265     N
H      0.86676   0.4555  0.67475     H
H      0.86676   0.5445  0.17476     H
H      0.86987  0.35765  0.31556     H
H      0.86987  0.64235  0.81556     H
H      0.87051  0.10824  0.99748     H
H      0.87052  0.89176  0.49749     H
C       0.8708  0.36564  0.57042     C
C       0.8708  0.63444  0.07042     C
C      0.87155  0.24434  0.51082     C
C      0.87155  0.75574  0.01082     C
H       0.8721  0.49343  0.27941     H
H       0.8721  0.50657  0.77941     H
N      0.87255  0.11814  0.84216     N
N      0.87255  0.88194  0.34216     N
C      0.87261  0.36804  0.96232     C
C      0.87261  0.63204  0.46232     C
H      0.87537  0.35657  0.09209     H
H      0.87537  0.64343   0.5921     H
C      0.87599  0.37714  0.62262     C
C      0.87599  0.62294  0.12262     C
C      0.87625  0.44944  0.94312     C
C      0.87625  0.55064  0.44312     C
Ni     0.87733  0.08212  0.45008    Ni
Ni     0.87733  0.91788  0.95008    Ni
H      0.87972   0.2652  0.39583     H
H      0.87972   0.7348  0.89583     H
H      0.87973  0.14997  0.75349     H
H      0.87973  0.85003  0.25349     H
H      0.88039  0.22133  0.05974     H
H      0.88039  0.77867  0.55974     H
C      0.88231  0.08064  0.89012     C
C      0.88231  0.91944  0.39012     C
N      0.88466  0.29374  0.55262     N
N      0.88466  0.70634  0.05262     N
C      0.88494  0.19264  0.82492     C
C      0.88494  0.80744  0.32492     C
C      0.88633  0.19714  0.77562     C
C      0.88633  0.80294  0.27562     C
H      0.88779  0.34535  0.98992     H
H      0.88779  0.65465  0.48992     H
H      0.88807  0.33784   0.6459     H
H      0.88807  0.66216   0.1459     H
C      0.88842  0.38314  0.31802     C
C      0.88842  0.61694  0.81802     C
N      0.88918  0.18044  0.50562     N
N      0.88918  0.81964  0.00562     N
C      0.88986  0.46394  0.29612     C
C      0.88986  0.53614  0.79612     C
H       0.8939  0.37428  0.46218     H
H       0.8939  0.62572  0.96218     H
H      0.89456  0.25902  0.89206     H
H      0.89456  0.74098  0.39206     H
C      0.89478  0.23004  0.39042     C
C      0.89478  0.77004  0.89042     C
C      0.89526  0.26224  0.85842     C
C      0.89526  0.73784  0.35842     C
C      0.89729  0.27004  0.75842     C
C      0.89729  0.73004  0.25842     C
H      0.89793  0.27224  0.72465     H
H      0.89794  0.72776  0.22465     H
H       0.8984  0.10102  0.91709     H
H       0.8984  0.89898  0.41709     H
N      0.89949  0.14874  0.40602     N
N      0.89949  0.85134  0.90602     N
N      0.90403  0.49404  0.95978     N
N      0.90403  0.50604  0.45978     N
C      0.90661  0.33654  0.84152     C
C      0.90661  0.66354  0.34152     C
C      0.90748  0.34084  0.79092     C
C      0.90748  0.65924  0.29092     C
C      0.90861  0.41714  0.46564     C
C      0.90861  0.58294  0.96564     C
C      0.91299  0.26255  0.57404     C
C      0.91299  0.73755  0.07404     C
H      0.91359  0.38321  0.86381     H
H      0.91359  0.61679   0.3638     H
N        0.914  0.25684  0.36572     N
N        0.914  0.74324  0.86572     N
C      0.91505  0.34054  0.34362     C
C      0.91505  0.65954  0.84362     C
C      0.91518  0.19185  0.54494     C
C      0.91518  0.80825  0.04494     C
O      0.91636  0.01114  0.48651     O
O      0.91636  0.98894  0.98651     O
C      0.91712  0.49854  0.79862     C
C      0.91712  0.50154  0.29862     C
N      0.91887  0.41764  0.77422     N
N      0.91887  0.58244  0.27422     N
C      0.92262  0.12065  0.38824     C
C      0.92262  0.87945  0.88824     C
H      0.92775  0.28465  0.60238     H
H      0.92775  0.71535  0.10238     H
H        0.929  0.46217  0.21416     H
H        0.929  0.53783  0.71416     H
H      0.93038  0.02935  0.47703     H
H      0.93038  0.97065  0.97703     H
H      0.93071  0.06446  0.39241     H
H      0.93071  0.93554  0.89241     H
C      0.93177  0.18644  0.36404     C
C      0.93177  0.81364  0.86404     C
H      0.93212  0.15625    0.551     H
H      0.93212  0.84375    0.051     H
C      0.93218  0.45764  0.96762     C
C      0.93218  0.54244  0.46762     C
H      0.93569  0.39793  0.96567     H
H      0.93569  0.60207  0.46567     H
C      0.93633  0.41234  0.74032     C
C      0.93633  0.58774  0.24032     C
C      0.93859  0.40424  0.47724     C
C      0.93859  0.59584  0.97724     C
C      0.93893  0.48634  0.71102     C
C      0.93893  0.51374  0.21102     C
C      0.94229  0.37764  0.34742     C
C      0.94229  0.62244  0.84742     C
C      0.94372  0.45804  0.32522     C
C      0.94372  0.54204  0.82522     C
H      0.94722  0.18448  0.34895     H
H      0.94722  0.81552  0.84895     H
H      0.94803  0.34988  0.48366     H
H      0.94803  0.65012  0.98365     H
H      0.95115  0.28866  0.75488     H
H      0.95115  0.71134  0.25488     H
C      0.95179  0.33744  0.73492     C
C      0.95179  0.66264  0.23492     C
N      0.95329  0.48284  0.47818     N
N      0.95329  0.51724  0.97818     N
C      0.95593  0.48304  0.67794     C
C      0.95593  0.51704  0.17794     C
H      0.95794  0.46723  0.15963     H
H      0.95794  0.53277  0.65963     H
H      0.95999  0.34874  0.36511     H
H      0.95999  0.65126  0.86511     H
H      0.96234  0.48324  0.32787     H
H      0.96234  0.51676  0.82786     H
C      0.96819  0.33354  0.70032     C
C      0.96819  0.66654  0.20032     C
C      0.97003  0.40684  0.67152     C
C      0.97003  0.59324  0.17152     C
H      0.97073   0.3308  0.92257     H
H      0.97073   0.6692  0.42257     H
H       0.9708  0.49443  0.08836     H
H       0.9708  0.50557  0.58836     H
H      0.97791  0.28197  0.69638     H
H      0.97791  0.71803  0.19638     H
C      0.98352  0.45724  0.59512     C
C      0.98352  0.54284  0.09512     C
C      0.98453  0.36164  0.91072     C
C      0.98453  0.63844  0.41072     C
N      0.98618  0.40144   0.6346     N
N      0.98618  0.59864   0.1346     N
H      0.98625  0.29178  0.84679     H
H      0.98625  0.70822  0.34679     H
C      0.99305  0.33914  0.86862     C
C      0.99305  0.66094  0.36862     C
H      0.99375   0.3413  0.01366     H
H      0.99375   0.6587  0.51366     H
O      0.99402  0.38154  0.03368     O
O      0.99402  0.61854  0.53368     O
N      0.99914  0.43514  0.93242     N
N      0.99914  0.56494  0.43242     N
