data_I
_chemical_name_common  '/home/zhangsd/repos/MofS-CGCNN/CGCNN_MT/data/WS24v2_external_test/clean_cifs/val_45'
_cell_length_a 25.39650
_cell_length_b 26.46750
_cell_length_c 29.52960
_cell_angle_alpha 90.00000
_cell_angle_beta  107.65300
_cell_angle_gamma 90.00000
_space_group_name_H-M_alt      'P 1'


loop_
_space_group_symop_operation_xyz
  'x, y, z' 

loop_
_atom_site_label
_atom_site_fract_x
_atom_site_fract_y
_atom_site_fract_z
_atom_site_type_symbol
C      0.00384  0.38614  0.88744     C
C      0.00384  0.61394  0.38744     C
C      0.00404  0.38644  0.42424     C
C      0.00404  0.61364  0.92424     C
C      0.00504  0.43654  0.08794     C
C      0.00504  0.56354  0.58794     C
O      0.00962  0.34162  0.62964     O
O      0.00962  0.65842  0.12964     O
O      0.00972  0.25312  0.57682     O
O      0.00972  0.74692  0.07682     O
H      0.01027  0.46131  0.43459     H
H      0.01027  0.53869  0.93459     H
H      0.01148  0.19017  0.04613     H
H      0.01148  0.80983  0.54613     H
O      0.01232  0.40702  0.58152     O
O      0.01232  0.59302  0.08152     O
H       0.0139  0.31583  0.09977     H
H       0.0139  0.68417  0.59976     H
C      0.01484  0.23144  0.54034     C
C      0.01484  0.76864  0.04034     C
C      0.01934  0.34984  0.10814     C
C      0.01934  0.65024  0.60814     C
H      0.02624  0.37692  0.80418     H
H      0.02624  0.62308  0.30418     H
C      0.03074  0.19634  0.98484     C
C      0.03074  0.80374  0.48484     C
C      0.03645  0.17884  0.03094     C
C      0.03645  0.82124  0.53094     C
C      0.03724  0.45084  0.13384     C
C      0.03724  0.54924  0.63384     C
C      0.03784  0.41804  0.86464     C
C      0.03784  0.58204  0.36464     C
C      0.03874  0.37204  0.47334     C
C      0.03874  0.62804  0.97334     C
C      0.04014  0.40734  0.81874     C
C      0.04014  0.59274  0.31874     C
H      0.04316  0.48467  0.14208     H
H      0.04316  0.51533  0.64209     H
O      0.04492  0.25402  0.67362     O
O      0.04492  0.74602  0.17362     O
H      0.04895  0.48758  0.22607     H
H      0.04895  0.51242  0.72607     H
C      0.05115  0.36354  0.15364     C
C      0.05115  0.63654  0.65364     C
O      0.05222  0.32512  0.47747     O
O      0.05222  0.67492  0.97747     O
O      0.05322  0.40382  0.50532     O
O      0.05322  0.59622  0.00532     O
O      0.05472  0.23782  0.52362     O
O      0.05472  0.76222  0.02362     O
C      0.05974  0.41294  0.16644     C
C      0.05974  0.58714  0.66644     C
C      0.06264  0.44134  0.79564     C
C      0.06264  0.55874  0.29564     C
C      0.06274  0.46064  0.88654     C
C      0.06274  0.53944  0.38654     C
H      0.06334  0.46691  0.91761     H
H      0.06334  0.53309  0.41762     H
H      0.06348  0.43403  0.76498     H
H      0.06348  0.56597  0.26498     H
Cr     0.06514  0.29286   0.6233    Cr
Cr     0.06514  0.70715   0.1233    Cr
H      0.06674  0.33848  0.17566     H
H      0.06674  0.66152  0.67566     H
H      0.06821  0.44257  0.01758     H
H      0.06821  0.55743  0.51758     H
H      0.06874  0.19223  0.93485     H
H      0.06874  0.80777  0.43485     H
C      0.06954  0.18044  0.96474     C
C      0.06954  0.81964  0.46474     C
C      0.07714  0.14564  0.05454     C
C      0.07714  0.85444  0.55454     C
C      0.07724  0.46584  0.24204     C
C      0.07724  0.53424  0.74204     C
H      0.07891  0.13412  0.08472     H
H      0.07891  0.86588  0.58472     H
C      0.08474  0.48734  0.81694     C
C      0.08474  0.51274  0.31694     C
O      0.08532  0.32872  0.57568     O
O      0.08532  0.67132  0.07568     O
Cr     0.08591  0.39999  0.57528    Cr
Cr     0.08591  0.60001  0.07528    Cr
O      0.08644  0.47672  0.57022     O
O      0.08644  0.52332  0.07022     O
C      0.08684  0.49444  0.86424     C
C      0.08684  0.50564  0.36424     C
C      0.09304  0.42674  0.21714     C
C      0.09304  0.57334  0.71714     C
C      0.10344  0.47264  0.29054     C
C      0.10344  0.52744  0.79054     C
H      0.10488  0.47746  0.38073     H
H      0.10488  0.52254  0.88073     H
C      0.10707  0.43515  0.02595     C
C      0.10707  0.56495  0.52595     C
Cr     0.10814  0.29224  0.52942    Cr
Cr     0.10814  0.70778  0.02942    Cr
C      0.11054  0.14624  0.98874     C
C      0.11054  0.85384  0.48874     C
H      0.11201  0.39958  0.02229     H
H      0.11201  0.60042  0.52229     H
C      0.11474  0.12974  0.03314     C
C      0.11474  0.87034  0.53314     C
O      0.11842  0.32872  0.67335     O
O      0.11842  0.67132  0.17335     O
O      0.11852  0.40742  0.64522     O
O      0.11852  0.59262  0.14522     O
O      0.12062  0.23962  0.63054     O
O      0.12062  0.76042  0.13054     O
H      0.12309  0.45365   0.0055     H
H      0.12309  0.54635   0.5055     H
C      0.12467  0.49545  0.09245     C
C      0.12467  0.50465  0.59245     C
C      0.13254  0.37584  0.67714     C
C      0.13254  0.62424  0.17714     C
O      0.13414  0.25102  0.48042     O
O      0.13414  0.74902  0.98042     O
N      0.13485  0.45034  0.07725     N
N      0.13485  0.54974  0.57725     N
H      0.13559  0.13456  0.97379     H
H      0.13559  0.86544   0.4738     H
C      0.13754  0.39574  0.24084     C
C      0.13754  0.60434  0.74084     C
C      0.14594  0.43964  0.31194     C
C      0.14594  0.56044  0.81194     C
H      0.14754   0.4933  0.62159     H
H      0.14754   0.5067  0.12159     H
H      0.14933  0.37084  0.22386     H
H      0.14933  0.62916  0.72386     H
C      0.16074  0.09594  0.05944     C
C      0.16074  0.90414  0.55944     C
O      0.16222  0.40372  0.56962     O
O      0.16222  0.59632  0.06962     O
C      0.16224  0.23364  0.61494     C
C      0.16224  0.76644  0.11494     C
O      0.16312  0.34282  0.52032     O
O      0.16312  0.65722  0.02032     O
H      0.16364  0.44363  0.34421     H
H      0.16364  0.55637  0.84421     H
C      0.16414  0.40104  0.28854     C
C      0.16414  0.59904  0.78854     C
H      0.16496   0.0568    0.003     H
H      0.16496   0.9432    0.503     H
O      0.16592  0.25512  0.57682     O
O      0.16592  0.74492  0.07682     O
H      0.16669  0.38775  0.11231     H
H      0.16669  0.61225  0.61231     H
C      0.16894  0.39104  0.72664     C
C      0.16894  0.60904  0.22664     C
H      0.17083  0.46585  0.71606     H
H      0.17083  0.53415  0.21606     H
H      0.17574   0.1284  0.12421     H
H      0.17574   0.8716  0.62421     H
C      0.17674  0.38464  0.53624     C
C      0.17674  0.61544  0.03624     C
C      0.17867  0.42195  0.11077     C
C      0.17867  0.57815  0.61077     C
H      0.17983  0.18838  0.69739     H
H      0.17983  0.81162  0.19739     H
C      0.17994  0.05954  0.03584     C
C      0.17994  0.94054  0.53584     C
H      0.18179  0.31953  0.75378     H
H      0.18179  0.68047  0.25378     H
C      0.18344  0.44044  0.73854     C
C      0.18344  0.55964  0.23854     C
H      0.18644  0.35523  0.37305     H
H      0.18644  0.64477  0.87305     H
H      0.18704  0.43722  0.14158     H
H      0.18704  0.56278  0.64158     H
C      0.18804  0.10334  0.10784     C
C      0.18804  0.89674  0.60784     C
C      0.18955  0.35344  0.76154     C
C      0.18955  0.64664  0.26154     C
C      0.20534  0.19854  0.63964     C
C      0.20534  0.80154  0.13964     C
C      0.20694  0.17954  0.68364     C
C      0.20694  0.82054  0.18364     C
C      0.20854  0.41894  0.51554     C
C      0.20854  0.58114  0.01554     C
H      0.20966   0.3733  0.46042     H
H      0.20966   0.6267  0.96042     H
C      0.21054  0.36734  0.31364     C
C      0.21054  0.63274  0.81364     C
H      0.21098  0.42213  0.10038     H
H      0.21098  0.57787  0.60038     H
C      0.21314  0.34694  0.35864     C
C      0.21314  0.65314  0.85864     C
C      0.21644  0.45234  0.78364     C
C      0.21644  0.54774  0.28364     C
C      0.21824  0.40564  0.47284     C
C      0.21824  0.59444  0.97284     C
H      0.22029  0.47636  0.56276     H
H      0.22029  0.52364  0.06276     H
C      0.22034  0.36624  0.80614     C
C      0.22034  0.63384  0.30614     C
C      0.22254  0.02564  0.06054     C
C      0.22254  0.97444  0.56054     C
H      0.22285  0.48787  0.87574     H
H      0.22285  0.51213  0.37574     H
C      0.22574  0.46694  0.53414     C
C      0.22574  0.53314  0.03414     C
H      0.22658  0.48583  0.79082     H
H      0.22658  0.51417  0.29082     H
H      0.23202  0.34099  0.82885     H
H      0.23202  0.65901  0.32885     H
C      0.23274  0.07394  0.13174     C
C      0.23274  0.92614  0.63174     C
C      0.23484  0.41574  0.81854     C
C      0.23484  0.58434  0.31854     C
H      0.23785  0.03154  0.97494     H
H      0.23785  0.96846  0.47494     H
C      0.24034  0.44064  0.44954     C
C      0.24034  0.55944  0.94954     C
C      0.24254  0.01214  0.53334     C
C      0.24254  0.98794  0.03334     C
H       0.2438  0.43164  0.42008     H
H       0.2438  0.56836  0.92008     H
H      0.24556  0.19621  0.59076     H
H      0.24556  0.80379  0.09076     H
C      0.24674  0.18364  0.62044     C
C      0.24674  0.81644  0.12044     C
C      0.24874  0.03354  0.10794     C
C      0.24874  0.96654  0.60794     C
C      0.24914  0.14724  0.70694     C
C      0.24914  0.85284  0.20694     C
H      0.24938  0.36501  0.26318     H
H      0.24938  0.63499  0.76318     H
C      0.24984  0.00034  0.98874     C
C      0.24984  0.99974  0.48874     C
C      0.25024  0.49974  0.01134     C
C      0.25024  0.50034  0.51134     C
H      0.25062  0.13499  0.73682     H
H      0.25062  0.86501  0.23682     H
C      0.25094  0.35284  0.29314     C
C      0.25094  0.64724  0.79314     C
C      0.25134  0.46654  0.89214     C
C      0.25134  0.53354  0.39214     C
C      0.25334  0.31644  0.37964     C
C      0.25334  0.68364  0.87964     C
H      0.25444  0.30379  0.40924     H
H      0.25444  0.69621  0.90924     H
H       0.2562  0.06836  0.57992     H
H       0.2562  0.93164  0.07992     H
C      0.25754  0.48794  0.46674     C
C      0.25754  0.51214  0.96674     C
C      0.25974  0.05944  0.55054     C
C      0.25974  0.94064  0.05054     C
H      0.26215  0.46846  0.02506     H
H      0.26215  0.53154  0.52506     H
C      0.26524  0.08434  0.18154     C
C      0.26524  0.91574  0.68154     C
C      0.26734  0.42614  0.86834     C
C      0.26734  0.57394  0.36834     C
H      0.26798  0.15901  0.17115     H
H      0.26798  0.84099  0.67115     H
H      0.27342  0.01417  0.20918     H
H      0.27342  0.98583  0.70918     H
C      0.27434  0.03314  0.46594     C
C      0.27434  0.96694  0.96594     C
H      0.27715  0.01213  0.12426     H
H      0.27715  0.98787  0.62426     H
C      0.27754  0.47444  0.93954     C
C      0.27754  0.52564  0.43954     C
H      0.27971  0.02364  0.43724     H
H      0.27971  0.97636  0.93724     H
C      0.27974  0.13384  0.19394     C
C      0.27974  0.86624  0.69394     C
C      0.28184  0.09444  0.52724     C
C      0.28184  0.90564  0.02724     C
C      0.28364  0.04774  0.21644     C
C      0.28364  0.95234  0.71644     C
C      0.28694  0.15314  0.64144     C
C      0.28694  0.84694  0.14144     C
H      0.28902  0.07787  0.89962     H
H      0.28902  0.92213  0.39962     H
C      0.28954  0.13274  0.68644     C
C      0.28954  0.86734  0.18644     C
H      0.29034   0.1267  0.53958     H
H      0.29034   0.8733  0.03959     H
C      0.29154  0.08114  0.48454     C
C      0.29154  0.91894  0.98454     C
C      0.29314  0.32054  0.31644     C
C      0.29314  0.67954  0.81644     C
C      0.29474  0.30154  0.36044     C
C      0.29474  0.69854  0.86044     C
C      0.31055  0.14664  0.23854     C
C      0.31055  0.85344  0.73854     C
C      0.31204  0.39674  0.89224     C
C      0.31204  0.60334  0.39224     C
H      0.31296  0.06278  0.85842     H
H      0.31296  0.93722  0.35842     H
H      0.31356  0.14477  0.62695     H
H      0.31356  0.85523  0.12695     H
C      0.31664  0.05964  0.26154     C
C      0.31664  0.94044  0.76154     C
H      0.31821  0.18047  0.24622     H
H      0.31821  0.81953  0.74622     H
C      0.32014  0.44054  0.96424     C
C      0.32014  0.55954  0.46424     C
H      0.32017  0.31162  0.30261     H
H      0.32017  0.68838  0.80261     H
C      0.32147  0.07815  0.88937     C
C      0.32147  0.92195  0.38937     C
C      0.32334  0.11544  0.46384     C
C      0.32334  0.88464  0.96384     C
H      0.32426   0.3716  0.87579     H
H      0.32426   0.6284  0.37579     H
H      0.32917  0.03415  0.28394     H
H      0.32917  0.96585  0.78394     H
C      0.33114  0.10904  0.27344     C
C      0.33114  0.89104  0.77344     C
H     0.33333333  0.11225  0.88769     H
H     0.33333333  0.88775  0.38769     H
O      0.33412  0.24492  0.42322     O
O      0.33412  0.75512  0.92322     O
H      0.33504   0.4432    0.997     H
H      0.33504   0.5568    0.497     H
C      0.33594  0.09904  0.71154     C
C      0.33594  0.90104  0.21154     C
H      0.33636  0.05637  0.65579     H
H      0.33636  0.94363  0.15579     H
O      0.33692  0.15722  0.47972     O
O      0.33692  0.84282  0.97972     O
O      0.33782  0.09632  0.43042     O
O      0.33782  0.90372  0.93042     O
C      0.33784  0.26644  0.38514     C
C      0.33784  0.73364  0.88514     C
C      0.33934  0.40414  0.94064     C
C      0.33934  0.59594  0.44064     C
H      0.35067  0.12916  0.77614     H
H      0.35067  0.87084  0.27614     H
H      0.35246   0.0067  0.37841     H
H      0.35246   0.9933  0.87841     H
C      0.35414  0.06044  0.68814     C
C      0.35414  0.93964  0.18814     C
C      0.36254  0.10434  0.75924     C
C      0.36254  0.89574  0.25924     C
H      0.36441  0.36544   0.0262     H
H      0.36441  0.63456  0.52621     H
N      0.36525  0.04974  0.92285     N
N      0.36525  0.95034  0.42285     N
O      0.36594  0.24902  0.51962     O
O      0.36594  0.75102  0.01962     O
C      0.36754  0.12424  0.32294     C
C      0.36754  0.87584  0.82294     C
C      0.37547  0.00465  0.90765     C
C      0.37547  0.99545  0.40765     C
H      0.37691  0.04635   0.9945     H
H      0.37691  0.95365   0.4945     H
O      0.37942  0.26042  0.36946     O
O      0.37942  0.73962  0.86946     O
O      0.38152  0.09262  0.35482     O
O      0.38152  0.90742  0.85482     O
O      0.38162  0.17132  0.32665     O
O      0.38162  0.82872  0.82665     O
C      0.38534  0.37034  0.96694     C
C      0.38534  0.62974  0.46694     C
H      0.38799  0.10042  0.97771     H
H      0.38799  0.89958  0.47771     H
C      0.38954  0.35384  0.01134     C
C      0.38954  0.64624  0.51134     C
Cr     0.39188  0.20777  0.47058    Cr
Cr     0.39188  0.79224  0.97058    Cr
C      0.39307  0.06495  0.97415     C
C      0.39307  0.93515  0.47415     C
H      0.39512  0.02254  0.61927     H
H      0.39512  0.97746  0.11927     H
C      0.39664  0.02744  0.70954     C
C      0.39664  0.97264  0.20954     C
C      0.40704  0.07334  0.78294     C
C      0.40704  0.92674  0.28294     C
C      0.41324  0.00564  0.13584     C
C      0.41324  0.99444  0.63584     C
O      0.41364  0.02332  0.42982     O
O      0.41364  0.97672  0.92982     O
Cr     0.41411  0.10002  0.42472    Cr
Cr     0.41411  0.89999  0.92472    Cr
O      0.41472  0.17132  0.42432     O
O      0.41472  0.82872  0.92432     O
C      0.41534  0.01274  0.18314     C
C      0.41534  0.98734  0.68314     C
H      0.42109  0.36588  0.91528     H
H      0.42109  0.63412  0.41528     H
C      0.42284  0.03424  0.75804     C
C      0.42284  0.96584  0.25804     C
C      0.42294  0.35444  0.94554     C
C      0.42294  0.64564  0.44554     C
C      0.43054  0.31964  0.03534     C
C      0.43054  0.68044  0.53534     C
H      0.43126  0.30777  0.06515     H
H      0.43126  0.69223  0.56515     H
H      0.43179  0.05743  0.98242     H
H      0.43179  0.94257  0.48241     H
H      0.43326  0.16152  0.82434     H
H      0.43326  0.83848  0.32434     H
Cr     0.43488  0.20714   0.3767    Cr
Cr     0.43488  0.79287   0.8767    Cr
H      0.43652  0.06597  0.23502     H
H      0.43652  0.93403  0.73502     H
H      0.43666  0.03309  0.08238     H
H      0.43666  0.96691  0.58239     H
C      0.43734  0.03944  0.11354     C
C      0.43734  0.96064  0.61354     C
C      0.43744  0.05874  0.20444     C
C      0.43744  0.94134  0.70444     C
C      0.44034  0.08714  0.83364     C
C      0.44034  0.91294  0.33364     C
O      0.44532  0.26222  0.47642     O
O      0.44532  0.73782  0.97642     O
O      0.44682  0.09622  0.49472     O
O      0.44682  0.90382  0.99472     O
O      0.44782  0.17492  0.52253     O
O      0.44782  0.82512  0.02253     O
C      0.44895  0.13654  0.84644     C
C      0.44895  0.86354  0.34644     C
H      0.45105  0.01242  0.77393     H
H      0.45105  0.98758  0.27393     H
O      0.45512  0.24602  0.32642     O
O      0.45512  0.75402  0.82642     O
H      0.45684  0.01533  0.85791     H
H      0.45684  0.98467  0.35791     H
C      0.45994  0.09274  0.18134     C
C      0.45994  0.90734  0.68134     C
C      0.46134  0.12804  0.52674     C
C      0.46134  0.87204  0.02674     C
C      0.46224  0.08204  0.13544     C
C      0.46224  0.91804  0.63544     C
C      0.46284  0.04924  0.86624     C
C      0.46284  0.95084  0.36624     C
C      0.46365  0.32124  0.96914     C
C      0.46365  0.67884  0.46914     C
C      0.46934  0.30374  0.01524     C
C      0.46934  0.69634  0.51524     C
H      0.47376  0.12308  0.19582     H
H      0.47376  0.87692  0.69582     H
C      0.48074  0.15024  0.89194     C
C      0.48074  0.84984  0.39194     C
C      0.48524  0.26864  0.45974     C
C      0.48524  0.73144  0.95974     C
H       0.4861  0.18417  0.90024     H
H       0.4861  0.81583  0.40024     H
O      0.48772  0.09302  0.41852     O
O      0.48772  0.90702  0.91852     O
H      0.48852  0.30983  0.95387     H
H      0.48852  0.69017  0.45387     H
H      0.48973  0.03869  0.56541     H
H      0.48973  0.96131  0.06541     H
O      0.49032  0.24692  0.42322     O
O      0.49032  0.75312  0.92322     O
O      0.49042  0.15842  0.37036     O
O      0.49042  0.84162  0.87036     O
C      0.49504  0.06354  0.91214     C
C      0.49504  0.93654  0.41214     C
C      0.49604  0.11364  0.57584     C
C      0.49604  0.88644  0.07584     C
C      0.49624  0.11394  0.11264     C
C      0.49624  0.88614  0.61264     C
C      0.50384  0.11394  0.38744     C
C      0.50384  0.88614  0.88744     C
C      0.50404  0.11364  0.92424     C
C      0.50404  0.88644  0.42424     C
C      0.50504  0.06354  0.58794     C
C      0.50504  0.93654  0.08794     C
O      0.50962  0.15842  0.12964     O
O      0.50962  0.84162  0.62964     O
O      0.50972  0.24692  0.07682     O
O      0.50972  0.75312  0.57682     O
H      0.51027  0.03869  0.93459     H
H      0.51027  0.96131  0.43459     H
H      0.51148  0.30983  0.54613     H
H      0.51148  0.69017  0.04613     H
O      0.51232  0.09302  0.08152     O
O      0.51232  0.90702  0.58152     O
H       0.5139  0.18417  0.59976     H
H       0.5139  0.81583  0.09977     H
C      0.51484  0.26864  0.04034     C
C      0.51484  0.73144  0.54034     C
C      0.51934  0.15024  0.60814     C
C      0.51934  0.84984  0.10814     C
H      0.52624  0.12308  0.30418     H
H      0.52624  0.87692  0.80418     H
C      0.53074  0.30374  0.48484     C
C      0.53074  0.69634  0.98484     C
C      0.53645  0.32124  0.53094     C
C      0.53645  0.67884  0.03094     C
C      0.53724  0.04924  0.63384     C
C      0.53724  0.95084  0.13384     C
C      0.53784  0.08204  0.36464     C
C      0.53784  0.91804  0.86464     C
C      0.53874  0.12804  0.97334     C
C      0.53874  0.87204  0.47334     C
C      0.54014  0.09274  0.31874     C
C      0.54014  0.90734  0.81874     C
H      0.54316  0.01533  0.64209     H
H      0.54316  0.98467  0.14208     H
O      0.54492  0.24602  0.17362     O
O      0.54492  0.75402  0.67362     O
H      0.54895  0.01242  0.72607     H
H      0.54895  0.98758  0.22607     H
C      0.55115  0.13654  0.65364     C
C      0.55115  0.86354  0.15364     C
O      0.55222  0.17492  0.97747     O
O      0.55222  0.82512  0.47747     O
O      0.55322  0.09622  0.00532     O
O      0.55322  0.90382  0.50532     O
O      0.55472  0.26222  0.02362     O
O      0.55472  0.73782  0.52362     O
C      0.55974  0.08714  0.66644     C
C      0.55974  0.91294  0.16644     C
C      0.56264  0.05874  0.29564     C
C      0.56264  0.94134  0.79564     C
C      0.56274  0.03944  0.38654     C
C      0.56274  0.96064  0.88654     C
H      0.56334  0.03309  0.41762     H
H      0.56334  0.96691  0.91761     H
H      0.56348  0.06597  0.26498     H
H      0.56348  0.93403  0.76498     H
Cr     0.56514  0.20714   0.1233    Cr
Cr     0.56514  0.79287   0.6233    Cr
H      0.56674  0.16152  0.67566     H
H      0.56674  0.83848  0.17566     H
H      0.56821  0.05743  0.51758     H
H      0.56821  0.94257  0.01758     H
H      0.56874  0.30777  0.43485     H
H      0.56874  0.69223  0.93485     H
C      0.56954  0.31964  0.46474     C
C      0.56954  0.68044  0.96474     C
C      0.57714  0.35444  0.55454     C
C      0.57714  0.64564  0.05454     C
C      0.57724  0.03424  0.74204     C
C      0.57724  0.96584  0.24204     C
H      0.57891  0.36588  0.58472     H
H      0.57891  0.63412  0.08472     H
C      0.58474  0.01274  0.31694     C
C      0.58474  0.98734  0.81694     C
O      0.58532  0.17132  0.07568     O
O      0.58532  0.82872  0.57568     O
Cr     0.58591  0.10002  0.07528    Cr
Cr     0.58591  0.89999  0.57528    Cr
O      0.58644  0.02332  0.07022     O
O      0.58644  0.97672  0.57022     O
C      0.58684  0.00564  0.36424     C
C      0.58684  0.99444  0.86424     C
C      0.59304  0.07334  0.71714     C
C      0.59304  0.92674  0.21714     C
C      0.60344  0.02744  0.79054     C
C      0.60344  0.97264  0.29054     C
H      0.60488  0.02254  0.88073     H
H      0.60488  0.97746  0.38073     H
C      0.60707  0.06495  0.52595     C
C      0.60707  0.93515  0.02595     C
Cr     0.60814  0.20777  0.02942    Cr
Cr     0.60814  0.79224  0.52942    Cr
C      0.61054  0.35384  0.48874     C
C      0.61054  0.64624  0.98874     C
H      0.61201  0.10042  0.52229     H
H      0.61201  0.89958  0.02229     H
C      0.61474  0.37034  0.53314     C
C      0.61474  0.62974  0.03314     C
O      0.61842  0.17132  0.17335     O
O      0.61842  0.82872  0.67335     O
O      0.61852  0.09262  0.14522     O
O      0.61852  0.90742  0.64522     O
O      0.62062  0.26042  0.13054     O
O      0.62062  0.73962  0.63054     O
H      0.62309  0.04635   0.5055     H
H      0.62309  0.95365   0.0055     H
C      0.62467  0.00465  0.59245     C
C      0.62467  0.99545  0.09245     C
C      0.63254  0.12424  0.17714     C
C      0.63254  0.87584  0.67714     C
O      0.63414  0.24902  0.98042     O
O      0.63414  0.75102  0.48042     O
N      0.63485  0.04974  0.57725     N
N      0.63485  0.95034  0.07725     N
H      0.63559  0.36544   0.4738     H
H      0.63559  0.63456  0.97379     H
C      0.63754  0.10434  0.74084     C
C      0.63754  0.89574  0.24084     C
C      0.64594  0.06044  0.81194     C
C      0.64594  0.93964  0.31194     C
H      0.64754   0.0067  0.12159     H
H      0.64754   0.9933  0.62159     H
H      0.64933  0.12916  0.72386     H
H      0.64933  0.87084  0.22386     H
C      0.66074  0.40414  0.55944     C
C      0.66074  0.59594  0.05944     C
O      0.66222  0.09632  0.06962     O
O      0.66222  0.90372  0.56962     O
C      0.66224  0.26644  0.11494     C
C      0.66224  0.73364  0.61494     C
O      0.66312  0.15722  0.02032     O
O      0.66312  0.84282  0.52032     O
H      0.66364  0.05637  0.84421     H
H      0.66364  0.94363  0.34421     H
C      0.66414  0.09904  0.78854     C
C      0.66414  0.90104  0.28854     C
H      0.66496   0.4432    0.503     H
H      0.66496   0.5568    0.003     H
O      0.66592  0.24492  0.07682     O
O      0.66592  0.75512  0.57682     O
H     0.66666667  0.11225  0.61231     H
H     0.66666667  0.88775  0.11231     H
C      0.66894  0.10904  0.22664     C
C      0.66894  0.89104  0.72664     C
H      0.67083  0.03415  0.21606     H
H      0.67083  0.96585  0.71606     H
H      0.67574   0.3716  0.62421     H
H      0.67574   0.6284  0.12421     H
C      0.67674  0.11544  0.03624     C
C      0.67674  0.88464  0.53624     C
C      0.67867  0.07815  0.61077     C
C      0.67867  0.92195  0.11077     C
H      0.67983  0.31162  0.19739     H
H      0.67983  0.68838  0.69739     H
C      0.67994  0.44054  0.53584     C
C      0.67994  0.55954  0.03584     C
H      0.68179  0.18047  0.25378     H
H      0.68179  0.81953  0.75378     H
C      0.68344  0.05964  0.23854     C
C      0.68344  0.94044  0.73854     C
H      0.68644  0.14477  0.87305     H
H      0.68644  0.85523  0.37305     H
H      0.68704  0.06278  0.64158     H
H      0.68704  0.93722  0.14158     H
C      0.68804  0.39674  0.60784     C
C      0.68804  0.60334  0.10784     C
C      0.68955  0.14664  0.26154     C
C      0.68955  0.85344  0.76154     C
C      0.70534  0.30154  0.13964     C
C      0.70534  0.69854  0.63964     C
C      0.70694  0.32054  0.18364     C
C      0.70694  0.67954  0.68364     C
C      0.70854  0.08114  0.01554     C
C      0.70854  0.91894  0.51554     C
H      0.70966   0.1267  0.96042     H
H      0.70966   0.8733  0.46042     H
C      0.71054  0.13274  0.81364     C
C      0.71054  0.86734  0.31364     C
H      0.71098  0.07787  0.60038     H
H      0.71098  0.92213  0.10038     H
C      0.71314  0.15314  0.85864     C
C      0.71314  0.84694  0.35864     C
C      0.71644  0.04774  0.28364     C
C      0.71644  0.95234  0.78364     C
C      0.71824  0.09444  0.97284     C
C      0.71824  0.90564  0.47284     C
H      0.72029  0.02364  0.06276     H
H      0.72029  0.97636  0.56276     H
C      0.72034  0.13384  0.30614     C
C      0.72034  0.86624  0.80614     C
C      0.72254  0.47444  0.56054     C
C      0.72254  0.52564  0.06054     C
H      0.72285  0.01213  0.37574     H
H      0.72285  0.98787  0.87574     H
C      0.72574  0.03314  0.03414     C
C      0.72574  0.96694  0.53414     C
H      0.72658  0.01417  0.29082     H
H      0.72658  0.98583  0.79082     H
H      0.73202  0.15901  0.32885     H
H      0.73202  0.84099  0.82885     H
C      0.73274  0.42614  0.63174     C
C      0.73274  0.57394  0.13174     C
C      0.73484  0.08434  0.31854     C
C      0.73484  0.91574  0.81854     C
H      0.73785  0.46846  0.47494     H
H      0.73785  0.53154  0.97494     H
C      0.74034  0.05944  0.94954     C
C      0.74034  0.94064  0.44954     C
C      0.74254  0.48794  0.03334     C
C      0.74254  0.51214  0.53334     C
H       0.7438  0.06836  0.92008     H
H       0.7438  0.93164  0.42008     H
H      0.74556  0.30379  0.09076     H
H      0.74556  0.69621  0.59076     H
C      0.74674  0.31644  0.12044     C
C      0.74674  0.68364  0.62044     C
C      0.74874  0.46654  0.60794     C
C      0.74874  0.53354  0.10794     C
C      0.74914  0.35284  0.20694     C
C      0.74914  0.64724  0.70694     C
H      0.74938  0.13499  0.76318     H
H      0.74938  0.86501  0.26318     H
C      0.74984  0.49974  0.48874     C
C      0.74984  0.50034  0.98874     C
C      0.75024  0.00034  0.51134     C
C      0.75024  0.99974  0.01134     C
H      0.75062  0.36501  0.23682     H
H      0.75062  0.63499  0.73682     H
C      0.75094  0.14724  0.79314     C
C      0.75094  0.85284  0.29314     C
C      0.75134  0.03354  0.39214     C
C      0.75134  0.96654  0.89214     C
C      0.75334  0.18364  0.87964     C
C      0.75334  0.81644  0.37964     C
H      0.75444  0.19621  0.90924     H
H      0.75444  0.80379  0.40924     H
H       0.7562  0.43164  0.07992     H
H       0.7562  0.56836  0.57992     H
C      0.75754  0.01214  0.96674     C
C      0.75754  0.98794  0.46674     C
C      0.75974  0.44064  0.05054     C
C      0.75974  0.55944  0.55054     C
H      0.76215  0.03154  0.52506     H
H      0.76215  0.96846  0.02506     H
C      0.76524  0.41574  0.68154     C
C      0.76524  0.58434  0.18154     C
C      0.76734  0.07394  0.36834     C
C      0.76734  0.92614  0.86834     C
H      0.76798  0.34099  0.67115     H
H      0.76798  0.65901  0.17115     H
H      0.77342  0.48583  0.70918     H
H      0.77342  0.51417  0.20918     H
C      0.77434  0.46694  0.96594     C
C      0.77434  0.53314  0.46594     C
H      0.77715  0.48787  0.62426     H
H      0.77715  0.51213  0.12426     H
C      0.77754  0.02564  0.43954     C
C      0.77754  0.97444  0.93954     C
H      0.77971  0.47636  0.93724     H
H      0.77971  0.52364  0.43724     H
C      0.77974  0.36624  0.69394     C
C      0.77974  0.63384  0.19394     C
C      0.78184  0.40564  0.02724     C
C      0.78184  0.59444  0.52724     C
C      0.78364  0.45234  0.71644     C
C      0.78364  0.54774  0.21644     C
C      0.78694  0.34694  0.14144     C
C      0.78694  0.65314  0.64144     C
H      0.78902  0.42213  0.39962     H
H      0.78902  0.57787  0.89962     H
C      0.78954  0.36734  0.18644     C
C      0.78954  0.63274  0.68644     C
H      0.79034   0.3733  0.03959     H
H      0.79034   0.6267  0.53958     H
C      0.79154  0.41894  0.98454     C
C      0.79154  0.58114  0.48454     C
C      0.79314  0.17954  0.81644     C
C      0.79314  0.82054  0.31644     C
C      0.79474  0.19854  0.86044     C
C      0.79474  0.80154  0.36044     C
C      0.81055  0.35344  0.73854     C
C      0.81055  0.64664  0.23854     C
C      0.81204  0.10334  0.39224     C
C      0.81204  0.89674  0.89224     C
H      0.81296  0.43722  0.35842     H
H      0.81296  0.56278  0.85842     H
H      0.81356  0.35523  0.12695     H
H      0.81356  0.64477  0.62695     H
C      0.81664  0.44044  0.76154     C
C      0.81664  0.55964  0.26154     C
H      0.81821  0.31953  0.74622     H
H      0.81821  0.68047  0.24622     H
C      0.82014  0.05954  0.46424     C
C      0.82014  0.94054  0.96424     C
H      0.82017  0.18838  0.80261     H
H      0.82017  0.81162  0.30261     H
C      0.82147  0.42195  0.38937     C
C      0.82147  0.57815  0.88937     C
C      0.82334  0.38464  0.96384     C
C      0.82334  0.61544  0.46384     C
H      0.82426   0.1284  0.37579     H
H      0.82426   0.8716  0.87579     H
H      0.82917  0.46585  0.78394     H
H      0.82917  0.53415  0.28394     H
C      0.83114  0.39104  0.77344     C
C      0.83114  0.60904  0.27344     C
H      0.83331  0.38775  0.38769     H
H      0.83331  0.61225  0.88769     H
O      0.83412  0.25512  0.92322     O
O      0.83412  0.74492  0.42322     O
H      0.83504   0.0568    0.497     H
H      0.83504   0.9432    0.997     H
C      0.83594  0.40104  0.21154     C
C      0.83594  0.59904  0.71154     C
H      0.83636  0.44363  0.15579     H
H      0.83636  0.55637  0.65579     H
O      0.83692  0.34282  0.97972     O
O      0.83692  0.65722  0.47972     O
O      0.83782  0.40372  0.93042     O
O      0.83782  0.59632  0.43042     O
C      0.83784  0.23364  0.88514     C
C      0.83784  0.76644  0.38514     C
C      0.83934  0.09594  0.44064     C
C      0.83934  0.90414  0.94064     C
H      0.85067  0.37084  0.27614     H
H      0.85067  0.62916  0.77614     H
H      0.85246   0.4933  0.87841     H
H      0.85246   0.5067  0.37841     H
C      0.85414  0.43964  0.18814     C
C      0.85414  0.56044  0.68814     C
C      0.86254  0.39574  0.25924     C
C      0.86254  0.60434  0.75924     C
H      0.86441  0.13456  0.52621     H
H      0.86441  0.86544   0.0262     H
N      0.86525  0.45034  0.42285     N
N      0.86525  0.54974  0.92285     N
O      0.86594  0.25102  0.01962     O
O      0.86594  0.74902  0.51962     O
C      0.86754  0.37584  0.82294     C
C      0.86754  0.62424  0.32294     C
C      0.87547  0.49545  0.40765     C
C      0.87547  0.50465  0.90765     C
H      0.87691  0.45365   0.4945     H
H      0.87691  0.54635   0.9945     H
O      0.87942  0.23962  0.86946     O
O      0.87942  0.76042  0.36946     O
O      0.88152  0.40742  0.85482     O
O      0.88152  0.59262  0.35482     O
O      0.88162  0.32872  0.82665     O
O      0.88162  0.67132  0.32665     O
C      0.88534  0.12974  0.46694     C
C      0.88534  0.87034  0.96694     C
H      0.88799  0.39958  0.47771     H
H      0.88799  0.60042  0.97771     H
C      0.88954  0.14624  0.51134     C
C      0.88954  0.85384  0.01134     C
Cr     0.89188  0.29224  0.97058    Cr
Cr     0.89188  0.70778  0.47058    Cr
C      0.89307  0.43515  0.47415     C
C      0.89307  0.56495  0.97415     C
H      0.89512  0.47746  0.11927     H
H      0.89512  0.52254  0.61927     H
C      0.89664  0.47264  0.20954     C
C      0.89664  0.52744  0.70954     C
C      0.90704  0.42674  0.28294     C
C      0.90704  0.57334  0.78294     C
C      0.91324  0.49444  0.63584     C
C      0.91324  0.50564  0.13584     C
O      0.91364  0.47672  0.92982     O
O      0.91364  0.52332  0.42982     O
Cr     0.91411  0.39999  0.92472    Cr
Cr     0.91411  0.60001  0.42472    Cr
O      0.91472  0.32872  0.92432     O
O      0.91472  0.67132  0.42432     O
C      0.91534  0.48734  0.68314     C
C      0.91534  0.51274  0.18314     C
H      0.92109  0.13412  0.41528     H
H      0.92109  0.86588  0.91528     H
C      0.92284  0.46584  0.25804     C
C      0.92284  0.53424  0.75804     C
C      0.92294  0.14564  0.44554     C
C      0.92294  0.85444  0.94554     C
C      0.93054  0.18044  0.53534     C
C      0.93054  0.81964  0.03534     C
H      0.93126  0.19223  0.56515     H
H      0.93126  0.80777  0.06515     H
H      0.93179  0.44257  0.48241     H
H      0.93179  0.55743  0.98242     H
H      0.93326  0.33848  0.32434     H
H      0.93326  0.66152  0.82434     H
Cr     0.93488  0.29286   0.8767    Cr
Cr     0.93488  0.70715   0.3767    Cr
H      0.93652  0.43403  0.73502     H
H      0.93652  0.56597  0.23502     H
H      0.93666  0.46691  0.58239     H
H      0.93666  0.53309  0.08238     H
C      0.93734  0.46064  0.61354     C
C      0.93734  0.53944  0.11354     C
C      0.93744  0.44134  0.70444     C
C      0.93744  0.55874  0.20444     C
C      0.94034  0.41294  0.33364     C
C      0.94034  0.58714  0.83364     C
O      0.94532  0.23782  0.97642     O
O      0.94532  0.76222  0.47642     O
O      0.94682  0.40382  0.99472     O
O      0.94682  0.59622  0.49472     O
O      0.94782  0.32512  0.02253     O
O      0.94782  0.67492  0.52253     O
C      0.94895  0.36354  0.34644     C
C      0.94895  0.63654  0.84644     C
H      0.95105  0.48758  0.27393     H
H      0.95105  0.51242  0.77393     H
O      0.95512  0.25402  0.82642     O
O      0.95512  0.74602  0.32642     O
H      0.95684  0.48467  0.35791     H
H      0.95684  0.51533  0.85791     H
C      0.95994  0.40734  0.68134     C
C      0.95994  0.59274  0.18134     C
C      0.96134  0.37204  0.02674     C
C      0.96134  0.62804  0.52674     C
C      0.96224  0.41804  0.63544     C
C      0.96224  0.58204  0.13544     C
C      0.96284  0.45084  0.36624     C
C      0.96284  0.54924  0.86624     C
C      0.96365  0.17884  0.46914     C
C      0.96365  0.82124  0.96914     C
C      0.96934  0.19634  0.51524     C
C      0.96934  0.80374  0.01524     C
H      0.97376  0.37692  0.69582     H
H      0.97376  0.62308  0.19582     H
C      0.98074  0.34984  0.39194     C
C      0.98074  0.65024  0.89194     C
C      0.98524  0.23144  0.95974     C
C      0.98524  0.76864  0.45974     C
H       0.9861  0.31583  0.40024     H
H       0.9861  0.68417  0.90024     H
O      0.98772  0.40702  0.91852     O
O      0.98772  0.59302  0.41852     O
H      0.98852  0.19017  0.45387     H
H      0.98852  0.80983  0.95387     H
H      0.98973  0.46131  0.06541     H
H      0.98973  0.53869  0.56541     H
O      0.99032  0.25312  0.92322     O
O      0.99032  0.74692  0.42322     O
O      0.99042  0.34162  0.87036     O
O      0.99042  0.65842  0.37036     O
C      0.99504  0.43654  0.41214     C
C      0.99504  0.56354  0.91214     C
C      0.99604  0.38644  0.07584     C
C      0.99604  0.61364  0.57584     C
C      0.99624  0.38614  0.61264     C
C      0.99624  0.61394  0.11264     C
