data_I
_chemical_name_common  '/home/zhangsd/repos/MofS-CGCNN/CGCNN_MT/data/WS24v2_external_test/clean_cifs/val_38'
_cell_length_a 23.97820
_cell_length_b 23.97820
_cell_length_c 23.97820
_cell_angle_alpha 90.00000
_cell_angle_beta  90.00000
_cell_angle_gamma 90.00000
_space_group_name_H-M_alt      'P 1'


loop_
_space_group_symop_operation_xyz
  'x, y, z' 

loop_
_atom_site_label
_atom_site_fract_x
_atom_site_fract_y
_atom_site_fract_z
_atom_site_type_symbol
H      0.00011  0.73368  0.56547     H
H      0.00011  0.76632  0.06547     H
H      0.00103  0.68955  0.31995     H
H      0.00104  0.81052  0.81995     H
C      0.00241  0.58496  0.95338     C
C      0.00241  0.91504  0.45338     C
O      0.00254  0.16037  0.45543     O
O      0.00254  0.33963  0.95543     O
N      0.00305  0.57265  0.43741     N
N      0.00305  0.92735  0.93741     N
C      0.00412    0.139  0.98215     C
C      0.00412    0.361  0.48215     C
C      0.00442  0.54249  0.91292     C
C      0.00442  0.95751  0.41292     C
H      0.00447  0.58217  0.62567     H
H      0.00447  0.91783  0.12567     H
H      0.00483  0.74492  0.55282     H
H      0.00483  0.75507  0.05282     H
H      0.00934  0.71028  0.20922     H
H      0.00934  0.78972  0.70922     H
N      0.01155  0.67928  0.18048     N
N      0.01155  0.82072  0.68048     N
C      0.01162  0.17982  0.22258     C
C      0.01162  0.32022  0.72258     C
H      0.01313  0.69918  0.61061     H
H      0.01313  0.80082  0.11061     H
C      0.01522  0.02571  0.09108     C
C      0.01522  0.47429  0.59108     C
C      0.01649  0.21592  0.91952     C
C      0.01649  0.28412  0.41952     C
C      0.01785  0.50412    0.361     C
C      0.01785  0.99588    0.861     C
C      0.01982   0.0531  0.84928     C
C      0.01982   0.4469  0.34932     C
C      0.02448  0.68942  0.23404     C
C      0.02448  0.81062  0.73404     C
H      0.02497  0.64371  0.19909     H
H      0.02497  0.85629   0.6991     H
C      0.02571  0.09108  0.01522     C
C      0.02571  0.40892  0.51522     C
H      0.03048  0.11624  0.54823     H
H      0.03048  0.38376  0.04823     H
H      0.03304   0.8497  0.71254     H
H      0.03306  0.65034  0.21256     H
H      0.03438  0.07368  0.88706     H
H      0.03439  0.42635  0.38711     H
H      0.03622  0.69624  0.61099     H
H      0.03622  0.80377  0.11099     H
C      0.03812  0.04009  0.63202     C
C      0.03812  0.45991  0.13202     C
C      0.03842  0.15602  0.32962     C
C      0.03842  0.34402  0.82962     C
H      0.03844  0.44597  0.26735     H
H      0.03845  0.05402  0.76731     H
N      0.03847   0.7271  0.58211     N
N      0.03847   0.7729  0.08211     N
C      0.03888  0.17282  0.95042     C
C      0.03888  0.32718  0.45042     C
C      0.04009  0.63202  0.03812     C
C      0.04009  0.86802  0.53812     C
H       0.0423  0.11314  0.65142     H
C      0.04249  0.58708  0.99558     C
C      0.04249  0.91292  0.49558     C
O      0.04457  0.50254  0.16037     O
O      0.04457  0.99746  0.66037     O
H      0.04463   0.2421  0.89533     H
H      0.04463  0.25797   0.3953     H
C      0.04662  0.50241  0.91504     C
C      0.04662  0.99759  0.41504     C
H      0.04722  0.45062  0.12944     H
H      0.04823  0.03048  0.38376     H
H      0.04823  0.46953  0.88376     H
H      0.04831  0.11782  0.80382     H
H      0.04833  0.38218  0.30387     H
H      0.04852  0.62654  0.05046     H
H      0.04906  0.35467  0.87247     H
H      0.04907  0.14539  0.37247     H
C      0.04962  0.53888  0.32718     C
C      0.04962  0.96112  0.82718     C
H      0.05011  0.58368  0.33466     H
H      0.05013  0.91633  0.83467     H
C      0.05222  0.07264  0.80638     C
C      0.05222  0.42736  0.30642     C
C       0.0531  0.65072  0.51982     C
C       0.0531  0.84928  0.01982     C
H      0.05402  0.73269  0.53845     H
H      0.05402  0.76731  0.03845     H
H      0.05555   0.0681  0.78734     H
H      0.05555  0.43191  0.28735     H
H      0.06058  0.00292  0.76487     H
H      0.06058  0.49708  0.26487     H
H       0.0616  0.68606  0.59562     H
H       0.0616  0.81394  0.09562     H
N      0.06259  0.50305  0.57265     N
C      0.06259  0.99695  0.07265     C
H      0.06328  0.70668  0.25015     H
H      0.06329  0.79339  0.75015     H
C      0.06366  0.15792  0.23271     C
C      0.06366  0.34208  0.73271     C
H       0.0654  0.71581  0.55146     H
H       0.0654  0.78419  0.05146     H
Zn     0.06598   0.7014   0.1191    Zn
Zn     0.06598   0.7986   0.6191    Zn
H      0.06609  0.65957  0.47721     H
H      0.06609  0.84043  0.97721     H
O      0.06857  0.08333  0.63976     O
O      0.06857  0.41667  0.13976     O
C      0.07264  0.69362  0.55222     C
C      0.07264  0.80638  0.05222     C
N      0.07265  0.06259  0.99695     N
C      0.07265  0.43741  0.49695     C
H      0.07368  0.61294  0.53438     H
H      0.07368  0.88706  0.03438     H
H      0.07646  0.64016  0.06407     H
C      0.07702  0.14492  0.28812     C
C      0.07702  0.35512  0.78812     C
H      0.07707  0.96025  0.09515     H
C      0.08052  0.51649  0.28412     C
C      0.08052  0.98351  0.78408     C
N      0.08211  0.03847   0.7729     N
N      0.08211  0.46153   0.2729     N
O      0.08333  0.86024  0.56857     O
H      0.08367  0.16534  0.94994     H
H      0.08368  0.33465  0.44995     H
C      0.08496  0.54662  0.99759     C
C      0.08496  0.95338  0.49759     C
C      0.08708  0.50442  0.95751     C
C      0.08708  0.99558  0.45751     C
H      0.09054  0.09628  0.60713     H
H      0.09054  0.40372  0.10713     H
C      0.09108  0.01522  0.02571     C
C      0.09108  0.48478  0.52571     C
H      0.09515  0.42294  0.46025     H
H      0.09562   0.0616  0.81394     H
H      0.09562  0.43842  0.31397     H
H      0.10251  0.54975  0.26238     H
H      0.10251  0.95024  0.76234     H
C      0.10593  0.15081  0.18794     C
C      0.10593  0.34919  0.68794     C
H      0.10871  0.09002  0.39962     H
N      0.10879  0.19021  0.14511     N
N      0.10879  0.30979  0.64511     N
O      0.10892  0.18063  0.75742     O
O      0.10892  0.31937  0.25742     O
H      0.11061  0.01313  0.80082     H
H      0.11061  0.48689  0.30088     H
H       0.1118  0.03071  0.80206     H
H       0.1118  0.46929  0.30206     H
H      0.11624  0.54823  0.03048     H
H      0.11624  0.95178  0.53048     H
H      0.11717  0.37371  0.79838     H
H      0.11718  0.12636  0.29838     H
H      0.11782  0.69618  0.54831     H
H      0.11782  0.80382  0.04831     H
Zn      0.1191  0.06598   0.7014    Zn
Zn      0.1191  0.43402   0.2014    Zn
H      0.12567  0.49553  0.41783     H
H      0.12568  0.00453  0.91784     H
H      0.12635  0.20166  0.61718     H
H      0.12636  0.29838  0.11718     H
H      0.12757  0.54908  0.14538     H
H      0.13021  0.94466  0.64345     H
O      0.13168  0.70636  0.16667     O
O      0.13168  0.79364 0.66666667     O
C      0.13202  0.03812  0.45991     C
C      0.13202  0.46192  0.95991     C
C        0.139  0.51785  0.50412     C
C        0.139  0.98215  0.00412     C
O      0.13976  0.06857  0.41667     O
O      0.13976  0.43143  0.91667     O
H      0.14265  0.07751  0.22305     H
H      0.14265  0.42249  0.72305     H
C      0.14492  0.21192  0.57702     C
C      0.14492  0.28812  0.07702     C
C      0.14511  0.10879  0.19021     C
C      0.14511  0.39121  0.69021     C
H      0.14538  0.12757  0.54908     H
H      0.14539  0.37247  0.04907     H
C      0.15072  0.51982   0.4469     C
C      0.15072  0.98022   0.9469     C
C      0.15081  0.18794  0.10593     C
C      0.15081  0.31206  0.60593     C
H      0.15274  0.03958   0.3901     H
C      0.15512  0.17416  0.73552     C
C      0.15512  0.32584  0.23552     C
C      0.15602  0.17042  0.53842     C
C      0.15602  0.32962  0.03842     C
C      0.15792  0.23271  0.06366     C
C      0.15792  0.26729  0.56366     C
O      0.16037  0.04457  0.50254     O
O      0.16037  0.45543  0.00254     O
H       0.1631  0.97524  0.66619     H
H      0.16413  0.24232  0.31063     H
H      0.16413  0.25768  0.81063     H
H      0.16533  0.55012  0.58367     H
H      0.16534  0.94994  0.08367     H
O      0.16667  0.13168  0.70636     O
O      0.16667  0.36832  0.20636     O
H      0.16975  0.97076   0.7005     H
C      0.17042  0.53842  0.15602     C
C      0.17042  0.96162  0.65602     C
C      0.17282  0.54962  0.53888     C
C      0.17282  0.95042  0.03888     C
C      0.17416  0.73552  0.15512     C
C      0.17416  0.76452  0.65512     C
H      0.17866  0.99979  0.63284     H
N      0.17928  0.18048  0.48845     N
N      0.17928  0.31952  0.98845     N
C      0.17982  0.22258  0.01162     C
C      0.17982  0.27742  0.51162     C
H      0.18005  0.50103  0.68955     H
H      0.18005  0.99903  0.18956     H
N      0.18048  0.01155  0.67928     N
N      0.18048  0.48845  0.17928     N
O      0.18063  0.74262  0.60892     O
O      0.18063  0.75742  0.10892     O
C      0.18794  0.10593  0.15081     C
C      0.18794  0.39407  0.65081     C
H      0.18937  0.66413  0.24232     H
H      0.18937  0.83587  0.74232     H
C      0.18942  0.23404  0.47552     C
C      0.18942  0.26596  0.97552     C
H      0.18956  0.18005  0.99903     H
H      0.18956  0.31995  0.49903     H
C      0.19021  0.14511  0.10879     C
C      0.19021  0.35489  0.60879     C
C      0.19362  0.55222  0.42736     C
C      0.19362  0.94782  0.92736     C
C      0.19679  0.24068  0.27911     C
C      0.19679  0.25932  0.77911     C
C      0.19853  0.21906  0.73679     C
C      0.19853  0.28094  0.23679     C
H      0.20101  0.55395  0.38259     H
H      0.20103  0.94612  0.88259     H
Zn      0.2014   0.1191  0.43402    Zn
Zn      0.2014   0.3809  0.93402    Zn
H      0.20154  0.88532  0.66803     H
H      0.20166  0.61718  0.12635     H
H      0.20354  0.02826  0.64796     H
H      0.20499  0.00572  0.71886     H
H      0.20608  0.24352  0.43435     H
H      0.20608  0.25649  0.93435     H
O      0.20636  0.16667  0.36832     O
O      0.20636 0.33333333  0.86832     O
H      0.21044  0.91435  0.60036     H
C      0.21192  0.57702  0.14492     C
C      0.21192  0.92302  0.64492     C
C      0.21592  0.58052  0.51649     C
C      0.21592  0.91952  0.01649     C
C      0.21906  0.73679  0.19853     C
C      0.21906  0.76321  0.69853     C
C      0.22089  0.69679  0.24068     C
C      0.22089  0.80321  0.74068     C
C      0.22258  0.01162  0.17982     C
C      0.22258  0.48842  0.67982     C
H      0.22305  0.14265  0.07751     H
H      0.22305  0.35735  0.57751     H
N       0.2271  0.58211  0.46153     N
N       0.2271  0.91789  0.96153     N
C      0.23271  0.06366  0.15792     C
C      0.23271  0.43634  0.65792     C
C      0.23404  0.02448  0.68942     C
C      0.23404  0.47552  0.18942     C
C      0.23552  0.15512  0.32584     C
C      0.23552  0.34488  0.82584     C
C      0.23679  0.19853  0.28094     C
C      0.23679  0.30147  0.78094     C
C      0.24068  0.22089  0.69679     C
C      0.24068  0.27911  0.19679     C
H      0.24209  0.60474  0.54462     H
H       0.2421  0.89533  0.04463     H
H      0.24232  0.18937  0.66413     H
H      0.24232  0.31063  0.16413     H
O      0.24262  0.60892  0.31937     O
O      0.24262  0.89112  0.81937     O
H      0.24352  0.43435  0.20608     H
H      0.25015  0.06328  0.70668     H
H      0.25512  0.05283  0.49516     H
H      0.25649  0.93435  0.20608     H
H       0.2565  0.56565   0.7061     H
O      0.25742  0.10892  0.31937     O
O      0.25742  0.39112  0.81937     O
H      0.25768  0.68937  0.66413     H
H      0.25768  0.81063  0.16413     H
H      0.25797   0.3953  0.04463     H
C      0.25932  0.72089  0.69679     C
C      0.25932  0.77911  0.19679     C
H      0.26238  0.10251  0.54975     H
C      0.26321  0.69853  0.28094     C
C      0.26321  0.80147  0.78094     C
C      0.26452  0.65512  0.32584     C
C      0.26452  0.84488  0.82584     C
C      0.26596  0.52448  0.68942     C
C      0.26596  0.97552  0.18942     C
C      0.26729  0.56366  0.15792     C
C      0.26729  0.93634  0.65792     C
H      0.26735  0.03844  0.44597     H
N       0.2729  0.08211  0.46153     N
N       0.2729  0.41789  0.96153     N
H      0.27696  0.64265  0.07751     H
H      0.27696  0.85735  0.57751     H
C      0.27742  0.51162  0.17982     C
C      0.27742  0.98842  0.67982     C
C      0.27911  0.19679  0.24068     C
C      0.27911  0.30321  0.74068     C
C      0.28094  0.23679  0.19853     C
C      0.28094  0.26321  0.69853     C
C      0.28412  0.08052  0.51649     C
C      0.28412  0.41952  0.01649     C
H      0.28735  0.05555  0.43191     H
C      0.28812  0.07702  0.14492     C
C      0.28812  0.42302  0.64492     C
O      0.29364 0.66666667  0.36832     O
O      0.29364  0.83333  0.86832     O
H      0.29398  0.74353  0.43434     H
H      0.29398  0.75648  0.93434     H
H      0.29838  0.11718  0.12636     H
H       0.2984  0.38287  0.62635     H
Zn      0.2986   0.6191  0.43402    Zn
Zn      0.2986   0.8809  0.93402    Zn
H      0.29903   0.4461  0.88258     H
H      0.30088  0.11061  0.48689     H
C      0.30147  0.71906  0.73679     C
C      0.30147  0.78094  0.23679     C
H      0.30206   0.1118  0.46929     H
C      0.30321  0.74068  0.27911     C
C      0.30321  0.75932  0.77911     C
H      0.30387  0.04833  0.38218     H
C      0.30642  0.05222  0.42736     C
C      0.30642  0.44782  0.92736     C
C      0.30979  0.64511  0.10879     C
C      0.30979  0.85489  0.60879     C
H       0.3105  0.68005  0.99902     H
H       0.3105  0.81996  0.49902     H
C      0.31062  0.73404  0.47552     C
C      0.31062  0.76596  0.97552     C
H      0.31063  0.16413  0.24232     H
H      0.31063  0.33587  0.74232     H
C      0.31206  0.60593  0.15081     C
C      0.31206  0.89407  0.65081     C
H      0.31397  0.09562  0.43842     H
O      0.31937  0.24262  0.60892     O
O      0.31937  0.25742  0.10892     O
N      0.31952  0.51155  0.67928     N
N      0.31952  0.98845  0.17928     N
H      0.31995  0.00103  0.68955     H
H      0.31995  0.49903  0.18956     H
C      0.32022  0.72258  0.01162     C
C      0.32022  0.77742  0.51162     C
N      0.32072  0.68048  0.48845     N
N      0.32072  0.81952  0.98845     N
C      0.32584  0.23552  0.15512     C
C      0.32584  0.26452  0.65512     C
C      0.32718  0.04962  0.53888     C
C      0.32718  0.45042  0.03888     C
C      0.32962  0.03842  0.15602     C
C      0.32962  0.46162  0.65602     C
O     0.33333333  0.63168  0.70636     O
O     0.33333333  0.86832  0.20636     O
H      0.33465  0.44995  0.08368     H
H      0.33466  0.05011  0.58368     H
H      0.33587  0.74232  0.31063     H
H      0.33587  0.75768  0.81063     H
O      0.33963  0.54457  0.50254     O
O      0.33963  0.95543  0.00254     O
H      0.34048  0.97721   0.4339     H
C      0.34208  0.73271  0.06366     C
C      0.34208  0.76729  0.56366     C
C      0.34402  0.67042  0.53842     C
C      0.34402  0.82962  0.03842     C
C      0.34488  0.67416  0.73552     C
C      0.34488  0.82584  0.23552     C
C      0.34919  0.68794  0.10593     C
C      0.34919  0.81206  0.60593     C
C      0.34932  0.01982   0.4469     C
C      0.34932  0.48022   0.9469     C
H      0.35467  0.87247  0.04906     H
H      0.35468  0.62758  0.54907     H
C      0.35489  0.60879  0.19021     C
N      0.35489  0.89121  0.69021     N
C      0.35512  0.71192  0.57702     C
C      0.35512  0.78812  0.07702     C
H      0.35735  0.57751  0.22305     H
O      0.36024  0.56857  0.41667     O
O      0.36024  0.93143  0.91667     O
C        0.361  0.01785  0.50412     C
C        0.361  0.48215  0.00412     C
C      0.36802  0.53812  0.45991     C
C      0.36802  0.96188  0.95991     C
O      0.36832  0.20636  0.16667     O
O      0.36832  0.29364 0.66666667     O
H      0.37247  0.04907  0.14539     H
H      0.37247  0.45098  0.64538     H
H      0.37371  0.70167  0.61717     H
H      0.37371  0.79838  0.11717     H
H      0.37438  0.50452  0.91785     H
Zn      0.3809  0.56598   0.7014    Zn
Zn      0.3809  0.93402   0.2014    Zn
H      0.38218  0.30387  0.04833     H
H       0.3824  0.14872  0.04712     H
H      0.38259  0.20101  0.55395     H
H      0.38287  0.62635   0.2984     H
H      0.38288  0.87372  0.79839     H
H      0.38376  0.04823  0.03048     H
H      0.38376  0.45178  0.53048     H
H      0.38711  0.03439  0.42635     H
O      0.39112  0.68063  0.75742     O
O      0.39112  0.81937  0.25742     O
N      0.39121  0.69021  0.14511     N
C      0.39121  0.80979  0.64511     C
C      0.39407  0.65081  0.18794     C
C      0.39407  0.84919  0.68794     C
H       0.3953  0.04463  0.25797     H
H       0.3953  0.45537  0.75797     H
C      0.40892  0.51522  0.02571     C
C      0.40892  0.98478  0.52571     C
C      0.41292  0.00442  0.95751     C
C      0.41292  0.49558  0.45751     C
C      0.41504  0.04662  0.99759     C
C      0.41504  0.45338  0.49759     C
H      0.41633  0.66533  0.94987     H
H      0.41633  0.83465  0.44995     H
O      0.41667  0.13976  0.06857     O
O      0.41667  0.36024  0.56857     O
H      0.41783  0.12567  0.49553     H
N      0.41789  0.53847   0.7729     N
N      0.41789  0.96153   0.2729     N
C      0.41952  0.01649  0.28412     C
C      0.41952  0.48351  0.78412     C
H      0.42249  0.77696  0.64265     H
H      0.42294  0.03975  0.59515     H
H      0.42294  0.46025  0.09515     H
C      0.42302  0.64492  0.28812     C
C      0.42302  0.85512  0.78812     C
H      0.42635  0.38711  0.03439     H
N      0.42735  0.56259  0.99695     N
N      0.42735  0.93741  0.49695     N
C      0.42736  0.19362  0.55222     C
C      0.42736  0.30642  0.05222     C
H      0.43102   0.2886  0.05732     H
O      0.43143  0.58333  0.63976     O
O      0.43143  0.91667  0.13976     O
H       0.4339  0.34048  0.97721     H
Zn     0.43402   0.2014   0.1191    Zn
Zn     0.43402   0.2986   0.6191    Zn
H      0.43434  0.29398  0.74353     H
H      0.43435  0.20608  0.24352     H
C      0.43634  0.65792  0.23271     C
C      0.43634  0.84208  0.73271     C
C      0.43741  0.00305  0.57265     C
C      0.43741  0.49695  0.07265     C
H      0.43842  0.31397  0.09562     H
H      0.44597  0.26735  0.03844     H
H       0.4461  0.61742  0.79903     H
H       0.4461  0.88258  0.29903     H
C       0.4469  0.15072  0.51982     C
C       0.4469  0.34932  0.01982     C
C      0.44782  0.57264  0.80642     C
C      0.44782  0.92736  0.30642     C
H      0.44825  0.13407  0.04239     H
H      0.44995  0.08368  0.33465     H
H      0.44995  0.41633  0.83465     H
C      0.45042  0.03888  0.32718     C
C      0.45042  0.46112  0.82718     C
H      0.45098  0.64538  0.37247     H
H      0.45099  0.85468  0.87247     H
H      0.45178  0.53048  0.38376     H
H      0.45178  0.96953  0.88376     H
C      0.45338  0.00241  0.91504     C
C      0.45338  0.49759  0.41504     C
H      0.45537  0.75797   0.3953     H
H      0.45538  0.74209  0.89526     H
O      0.45543  0.00254  0.16037     O
O      0.45543  0.49746  0.66037     O
C      0.45751  0.08708  0.99558     C
C      0.45751  0.41292  0.49558     C
C      0.45991  0.36802  0.53812     C
H      0.46025  0.40485  0.92294     H
C      0.46112  0.67282  0.95038     C
C      0.46112  0.82718  0.45042     C
N      0.46153   0.2271  0.58211     N
N      0.46153   0.2729  0.08211     N
C      0.46162  0.65602  0.32962     C
C      0.46162  0.84402  0.82962     C
C      0.46192  0.54009  0.63202     C
C      0.46192  0.95991  0.13202     C
H      0.46953  0.61624  0.54823     H
H      0.46953  0.88376  0.04823     H
H       0.4715  0.30127  0.11191     H
C      0.47429  0.59108  0.01522     C
C      0.47429  0.90892  0.51522     C
C      0.47552  0.18942  0.23404     C
C      0.47552  0.31062  0.73404     C
H      0.47721  0.06609  0.65957     H
C      0.48022   0.5531  0.84932     C
C      0.48022   0.9469  0.34932     C
C      0.48215  0.00412    0.361     C
C      0.48215  0.49588    0.861     C
C      0.48351  0.71592  0.91948     C
C      0.48351  0.78412  0.41952     C
C      0.48478  0.52571  0.09108     C
C      0.48478  0.97429  0.59108     C
H      0.48689  0.30088  0.11061     H
C      0.48842  0.67982  0.22258     C
C      0.48842  0.82022  0.72258     C
N      0.48845  0.17928  0.18048     N
N      0.48845  0.32072  0.68048     N
H      0.49516  0.25512  0.05283     H
H      0.49553  0.41783  0.12567     H
C      0.49558  0.04249  0.91292     C
C      0.49558  0.45751  0.41292     C
C      0.49588    0.639  0.98215     C
C      0.49588    0.861  0.48215     C
N      0.49695  0.07265  0.43741     N
C      0.49695  0.42735  0.93741     C
O      0.49746  0.66037  0.45543     O
O      0.49746  0.83963  0.95543     O
C      0.49759  0.08496  0.95338     C
C      0.49759  0.41504  0.45338     C
H      0.49902   0.3105  0.81996     H
H      0.49903  0.18956  0.31995     H
H      0.50103  0.68955  0.18005     H
H      0.50104  0.81052  0.68005     H
C      0.50241  0.58496  0.54662     C
C      0.50241  0.91504  0.04662     C
O      0.50254  0.33963  0.54457     O
C      0.50305  0.57265  0.06259     C
C      0.50305  0.92735  0.56259     C
C      0.50412    0.139  0.51785     C
C      0.50412    0.361  0.01785     C
C      0.50442  0.54249  0.58708     C
C      0.50442  0.95751  0.08708     C
H      0.50452  0.58215  0.87438     H
H      0.50452  0.91785  0.37438     H
N      0.51155  0.67928  0.31952     N
N      0.51155  0.82072  0.81952     N
C      0.51162  0.17982  0.27742     C
C      0.51162  0.32022  0.77742     C
C      0.51522  0.02571  0.40892     C
C      0.51522  0.47429  0.90892     C
C      0.51649  0.21592  0.58052     C
C      0.51649  0.28412  0.08052     C
C      0.51785  0.50412    0.139     C
C      0.51785  0.99588    0.639     C
C      0.51982   0.0531  0.65072     C
C      0.51982   0.4469  0.15072     C
C      0.52448  0.68942  0.26596     C
C      0.52448  0.81062  0.76596     C
C      0.52571  0.09108  0.48478     C
C      0.52571  0.40892  0.98478     C
H      0.53048  0.11624  0.95178     H
H      0.53048  0.38376  0.45178     H
H      0.53438  0.07368  0.61294     H
C      0.53812  0.04009  0.86802     C
C      0.53812  0.45991  0.36802     C
C      0.53842  0.15602  0.17042     C
C      0.53842  0.34402  0.67042     C
H      0.53845  0.05402  0.73269     H
N      0.53847   0.7271  0.91789     N
N      0.53847   0.7729  0.41789     N
C      0.53888  0.17282  0.54962     C
C      0.53888  0.32718  0.04962     C
H      0.53975  0.59515  0.07707     H
H      0.53975  0.90485  0.57707     H
C      0.54009  0.63202  0.46192     C
C      0.54009  0.86802  0.96188     C
C      0.54249  0.58708  0.50442     C
C      0.54249  0.91292  0.00442     C
O      0.54457  0.50254  0.33963     O
O      0.54457  0.99746  0.83963     O
H      0.54462  0.24209  0.60474     H
C      0.54662  0.50241  0.58496     C
C      0.54662  0.99759  0.08496     C
H      0.54823  0.03048  0.11624     H
H      0.54823  0.46953  0.61624     H
H      0.54831  0.11782  0.69618     H
H      0.54907  0.35468  0.62758     H
H      0.54908  0.14538  0.12757     H
C      0.54962  0.53888  0.17282     C
C      0.54962  0.96112  0.67282     C
H      0.54975  0.26238  0.10251     H
H      0.55012  0.58367  0.16533     H
H      0.55012  0.91633  0.66533     H
C      0.55222  0.07264  0.69362     C
C      0.55222  0.42736  0.19362     C
H      0.55282  0.00483  0.74492     H
C       0.5531  0.65072  0.98018     C
C       0.5531  0.84932  0.48022     C
H      0.55395  0.38259  0.20101     H
H      0.55555   0.0681  0.71266     H
C      0.56259  0.50305  0.92735     C
C      0.56259  0.99695  0.42735     C
C      0.56366  0.15792  0.26729     C
C      0.56366  0.34208  0.76729     C
H      0.56565   0.7061   0.2565     H
H      0.56566  0.79397  0.75649     H
Zn     0.56598   0.7014   0.3809    Zn
Zn     0.56598   0.7986   0.8809    Zn
O      0.56857  0.08333  0.86024     O
O      0.56857  0.41667  0.36024     O
C      0.57264  0.69362  0.94778     C
C      0.57264  0.80642  0.44782     C
C      0.57265  0.06259  0.50305     C
N      0.57265  0.43741  0.00305     N
C      0.57702  0.14492  0.21192     C
C      0.57702  0.35512  0.71192     C
H      0.57707  0.53975  0.90485     H
H      0.57707  0.96025  0.40485     H
H      0.57751  0.22305  0.35735     H
H      0.57751  0.27696  0.85735     H
C      0.58052  0.51649  0.21592     C
C      0.58052  0.98351  0.71592     C
N      0.58211  0.03847   0.7271     N
N      0.58211  0.46153   0.2271     N
H      0.58215  0.87438  0.50452     H
H      0.58217  0.62567  0.00447     H
O      0.58333  0.63976  0.43143     O
O      0.58333  0.86024  0.93143     O
H      0.58367  0.16533  0.55012     H
H      0.58368  0.33466  0.05011     H
C      0.58496  0.54662  0.50241     C
C      0.58496  0.95338  0.00241     C
C      0.58708  0.50442  0.54249     C
C      0.58708  0.99558  0.04249     C
C      0.59108  0.01522  0.47429     C
C      0.59108  0.48478  0.97429     C
H      0.59515  0.07707  0.53975     H
H      0.59562   0.0616  0.68606     H
H      0.60036  0.21044  0.91435     H
H      0.60251  0.95025  0.73766     H
H      0.60474  0.54462  0.24209     H
C      0.60593  0.15081  0.31206     C
C      0.60593  0.34919  0.81206     C
C      0.60879  0.19021  0.35489     C
C      0.60879  0.30979  0.85489     C
O      0.60892  0.18063  0.74262     O
O      0.60892  0.31937  0.24262     O
H      0.61061  0.01313  0.69918     H
H       0.6118  0.03071  0.69794     H
H      0.61294  0.53438  0.07368     H
H      0.61624  0.54823  0.46953     H
H      0.61624  0.95178  0.96953     H
H      0.61717  0.37371  0.70167     H
H      0.61718  0.12635  0.20166     H
H      0.61742  0.70102  0.94605     H
H      0.61742  0.79903   0.4461     H
Zn      0.6191  0.06598   0.7986    Zn
Zn      0.6191  0.43402   0.2986    Zn
H      0.62567  0.00447  0.58217     H
H      0.62635   0.2984  0.38287     H
H      0.62654  0.05046  0.04852     H
H      0.62758  0.54907  0.35468     H
H      0.63021  0.94466  0.85655     H
O      0.63168  0.70636 0.33333333     O
O      0.63168  0.79364  0.83333     O
C      0.63202  0.03812  0.04009     C
C      0.63202  0.46192  0.54009     C
H      0.63284  0.17866  0.99979     H
C        0.639  0.51785  0.99588     C
C        0.639  0.98215  0.49588     C
O      0.63976  0.06857  0.08333     O
O      0.63976  0.43143  0.58333     O
H      0.64265  0.07751  0.27696     H
H      0.64345  0.13021  0.94466     H
C      0.64492  0.21192  0.92302     C
C      0.64492  0.28812  0.42302     C
C      0.64511  0.10879  0.30979     C
N      0.64511  0.39121  0.80979     N
H      0.64538  0.37247  0.45098     H
H      0.64796  0.20354  0.02826     H
C      0.65072  0.51982   0.0531     C
C      0.65072  0.98018   0.5531     C
C      0.65081  0.18794  0.39407     C
C      0.65081  0.31206  0.89407     C
H      0.65274  0.03958  0.10991     H
C      0.65512  0.17416  0.76452     C
C      0.65512  0.32584  0.26452     C
C      0.65602  0.17042  0.96162     C
C      0.65602  0.32962  0.46162     C
C      0.65792  0.23271  0.43634     C
C      0.65792  0.26729  0.93634     C
H      0.65957  0.47721  0.06609     H
O      0.66037  0.04457  0.99746     O
O      0.66037  0.45543  0.49746     O
H       0.6631  0.97524  0.83381     H
H      0.66413  0.24232  0.18937     H
H      0.66413  0.25768  0.68937     H
H      0.66533  0.55012  0.91633     H
H      0.66533  0.94987  0.41633     H
H      0.66619   0.1631  0.97524     H
O     0.66666667  0.13168  0.79364     O
O     0.66666667  0.36832  0.29364     O
H      0.66803  0.20154  0.88532     H
H      0.66975  0.97076   0.7995     H
C      0.67042  0.53842  0.34402     C
C      0.67042  0.96162  0.84398     C
C      0.67282  0.54962  0.96112     C
C      0.67282  0.95038  0.46112     C
C      0.67416  0.73552  0.34488     C
C      0.67416  0.76452  0.84488     C
H      0.67866  0.99979  0.86716     H
N      0.67928  0.18048  0.01155     N
N      0.67928  0.31952  0.51155     N
C      0.67982  0.22258  0.48842     C
C      0.67982  0.27742  0.98842     C
H      0.68005  0.50104  0.81052     H
H      0.68005  0.99902   0.3105     H
N      0.68048  0.01155  0.82072     N
N      0.68048  0.48845  0.32072     N
O      0.68063  0.74262  0.89112     O
O      0.68063  0.75742  0.39112     O
H      0.68606  0.59562   0.0616     H
C      0.68794  0.10593  0.34919     C
C      0.68794  0.39407  0.84919     C
H      0.68937  0.66413  0.25768     H
H      0.68937  0.83587  0.75768     H
C      0.68942  0.23404  0.02448     C
C      0.68942  0.26596  0.52448     C
H      0.68955  0.18005  0.50103     H
H      0.68955  0.31995  0.00103     H
N      0.69021  0.14511  0.39121     N
C      0.69021  0.35489  0.89121     C
C      0.69362  0.55222  0.07264     C
C      0.69362  0.94778  0.57264     C
H      0.69618  0.54831  0.11782     H
C      0.69679  0.24068  0.22089     C
C      0.69679  0.25932  0.72089     C
C      0.69853  0.21906  0.76321     C
C      0.69853  0.28094  0.26321     C
H      0.69873  0.61191   0.0285     H
H      0.69918  0.61061  0.01313     H
H       0.7005  0.16975  0.97076     H
H      0.70102  0.94605  0.61742     H
Zn      0.7014   0.1191  0.06598    Zn
Zn      0.7014   0.3809  0.56598    Zn
H      0.70154  0.88532  0.83197     H
H      0.70167  0.61717  0.37371     H
H      0.70354  0.02826  0.85204     H
H      0.70499  0.00572  0.78114     H
H       0.7061   0.2565  0.56565     H
O      0.70636  0.16667  0.13168     O
O      0.70636 0.33333333  0.63168     O
H      0.70668  0.25015  0.06328     H
H      0.71044  0.91435  0.89964     H
H       0.7114  0.55732  0.06898     H
C      0.71192  0.57702  0.35512     C
C      0.71192  0.92302  0.85508     C
H      0.71268  0.20539  0.00404     H
C      0.71592  0.58052  0.98351     C
C      0.71592  0.91948  0.48351     C
C      0.71906  0.73679  0.30147     C
C      0.71906  0.76321  0.80147     C
C      0.72089  0.69679  0.25932     C
C      0.72089  0.80321  0.75932     C
C      0.72258  0.01162  0.32022     C
C      0.72258  0.48842  0.82022     C
H      0.72305  0.35735  0.92249     H
N       0.7271  0.58211  0.03847     N
N       0.7271  0.91789  0.53847     N
H      0.73269  0.53845  0.05402     H
C      0.73271  0.06366  0.34208     C
C      0.73271  0.43634  0.84208     C
C      0.73404  0.02448  0.81058     C
C      0.73404  0.47552  0.31062     C
C      0.73552  0.15512  0.17416     C
C      0.73552  0.34488  0.67416     C
H      0.73559   0.5587  0.00424     H
C      0.73679  0.19853  0.21906     C
C      0.73679  0.30147  0.71906     C
H      0.73766  0.60251  0.95025     H
C      0.74068  0.22089  0.80321     C
C      0.74068  0.27911  0.30321     C
H      0.74209  0.89526  0.45538     H
H      0.74232  0.18937  0.83587     H
H      0.74232  0.31063  0.33587     H
O      0.74262  0.60892  0.18063     O
O      0.74262  0.89112  0.68063     O
H      0.74353  0.43434  0.29398     H
H      0.75015  0.06328  0.79332     H
H      0.75648  0.93434  0.29398     H
H      0.75649  0.56566  0.79397     H
O      0.75742  0.10892  0.18063     O
O      0.75742  0.39112  0.68063     O
H      0.75768  0.68937  0.83587     H
H      0.75768  0.81063  0.33587     H
H      0.75797   0.3953  0.45537     H
H      0.75798  0.10476  0.95538     H
C      0.75932  0.72089  0.80321     C
C      0.75932  0.77911  0.30321     C
C      0.76321  0.69853  0.21906     C
C      0.76321  0.80147  0.71906     C
C      0.76452  0.65512  0.17416     C
C      0.76452  0.84488  0.67416     C
C      0.76596  0.52448  0.81062     C
C      0.76596  0.97552  0.31062     C
C      0.76729  0.56366  0.34208     C
C      0.76729  0.93634  0.84208     C
N       0.7729  0.08211  0.03847     N
N       0.7729  0.41789  0.53847     N
H      0.77696  0.64265  0.42249     H
C      0.77742  0.51162  0.32022     C
C      0.77742  0.98842  0.82018     C
C      0.77911  0.19679  0.25932     C
C      0.77911  0.30321  0.75932     C
C      0.78094  0.23679  0.30147     C
C      0.78094  0.26321  0.80147     C
C      0.78412  0.08052  0.98351     C
C      0.78412  0.41952  0.48351     C
C      0.78812  0.07702  0.35512     C
C      0.78812  0.42302  0.85512     C
O      0.79364 0.66666667  0.13168     O
O      0.79364  0.83333  0.63168     O
H      0.79397  0.75649  0.56566     H
H      0.79398  0.74353  0.06566     H
H      0.79838  0.11717  0.37371     H
H      0.79839  0.38288  0.87372     H
Zn      0.7986   0.6191  0.06598    Zn
Zn      0.7986   0.8809  0.56598    Zn
H      0.79903   0.4461  0.61742     H
H      0.79904  0.05396  0.11742     H
C      0.80147  0.71906  0.76321     C
C      0.80147  0.78094  0.26321     C
C      0.80321  0.74068  0.22089     C
C      0.80321  0.75932  0.72089     C
C      0.80642  0.05222  0.07264     C
C      0.80642  0.44782  0.57264     C
C      0.80979  0.64511  0.39121     C
N      0.80979  0.85489  0.89121     N
H       0.8105  0.81996  0.00098     H
H      0.81052  0.68005  0.50104     H
C      0.81062  0.73404  0.02448     C
C      0.81062  0.76596  0.52448     C
H      0.81063  0.16413  0.25768     H
H      0.81063  0.33587  0.75768     H
C      0.81206  0.60593  0.34919     C
C      0.81206  0.89407  0.84919     C
O      0.81937  0.24262  0.89112     O
O      0.81937  0.25742  0.39112     O
N      0.81952  0.51155  0.82072     N
N      0.81952  0.98845  0.32072     N
H      0.81995  0.00103  0.81045     H
H      0.81996  0.49902   0.3105     H
C      0.82022  0.72258  0.48842     C
C      0.82022  0.77742  0.98838     C
N      0.82072  0.68048  0.01155     N
N      0.82072  0.81952  0.51155     N
C      0.82584  0.23552  0.34488     C
C      0.82584  0.26452  0.84488     C
C      0.82718  0.04962  0.96112     C
C      0.82718  0.45042  0.46112     C
C      0.82962  0.03842  0.34402     C
C      0.82962  0.46162  0.84402     C
O      0.83333  0.63168  0.79364     O
O      0.83333  0.86832  0.29364     O
H      0.83465  0.44995  0.41633     H
H      0.83466  0.05011  0.91632     H
H      0.83587  0.74232  0.18937     H
H      0.83587  0.75768  0.68937     H
O      0.83963  0.54457  0.99746     O
O      0.83963  0.95543  0.49746     O
C      0.84208  0.73271  0.43634     C
C      0.84208  0.76729  0.93634     C
C      0.84402  0.67042  0.96158     C
C      0.84402  0.82962  0.46162     C
C      0.84488  0.67416  0.76452     C
C      0.84488  0.82584  0.26452     C
C      0.84919  0.68794  0.39407     C
C      0.84919  0.81206  0.89407     C
C      0.84932  0.01982   0.0531     C
C      0.84932  0.48022   0.5531     C
H      0.85468  0.62758  0.95093     H
H      0.85468  0.87247  0.45099     H
N      0.85489  0.60879  0.30979     N
C      0.85489  0.89121  0.80979     C
C      0.85512  0.71192  0.92298     C
C      0.85512  0.78812  0.42302     C
H      0.85735  0.92249  0.77695     H
O      0.86024  0.56857  0.08333     O
O      0.86024  0.93143  0.58333     O
C        0.861  0.01785  0.99588     C
C        0.861  0.48215  0.49588     C
C      0.86802  0.53812  0.04009     C
C      0.86802  0.96188  0.54009     C
O      0.86832  0.20636 0.33333333     O
O      0.86832  0.29364  0.83333     O
H      0.87247  0.04906  0.35467     H
H      0.87247  0.45099  0.85468     H
H      0.87371  0.70167  0.88283     H
H      0.87372  0.79839  0.38288     H
H      0.87438  0.50452  0.58215     H
H      0.87439  0.99554  0.08216     H
Zn      0.8809  0.56598   0.7986    Zn
Zn      0.8809  0.93402   0.2986    Zn
H      0.88258  0.20103  0.94612     H
H      0.88258  0.29903   0.4461     H
H      0.88376  0.04823  0.46953     H
H      0.88376  0.45178  0.96953     H
H      0.88532  0.66803  0.20154     H
H      0.88532  0.83203  0.70149     H
O      0.89112  0.68063  0.74262     O
O      0.89112  0.81937  0.24262     O
C      0.89121  0.69021  0.35489     C
C      0.89121  0.80979  0.85489     C
C      0.89407  0.65081  0.31206     C
C      0.89407  0.84919  0.81206     C
H      0.89526  0.04462  0.24209     H
H      0.89526  0.45538  0.74209     H
H      0.90485  0.57707  0.53975     H
H      0.90485  0.92293  0.03975     H
C      0.90892  0.51522  0.47429     C
C      0.90892  0.98478  0.97429     C
C      0.91292  0.00442  0.54249     C
C      0.91292  0.49558  0.04249     C
H      0.91435  0.60036  0.21044     H
H      0.91437  0.89968  0.71042     H
C      0.91504  0.04662  0.50241     C
C      0.91504  0.45338  0.00241     C
H      0.91633  0.66533  0.55012     H
H      0.91633  0.83467  0.05013     H
O      0.91667  0.13976  0.43143     O
O      0.91667  0.36024  0.93143     O
H      0.91784  0.12568  0.00453     H
H      0.91785  0.37438  0.50452     H
N      0.91789  0.53847   0.7271     N
N      0.91789  0.96153   0.2271     N
C      0.91948  0.01649  0.21592     C
C      0.91948  0.48351  0.71592     C
H      0.92249  0.72305  0.35735     H
H      0.92249  0.77696  0.85735     H
H      0.92294  0.03975  0.90485     H
H      0.92294  0.46025  0.40485     H
C      0.92302  0.64492  0.21192     C
C      0.92302  0.85512  0.71188     C
C      0.92735  0.56259  0.50305     C
C      0.92735  0.93741  0.00305     C
C      0.92736  0.19362  0.94782     C
C      0.92736  0.30642  0.44782     C
O      0.93143  0.58333  0.86024     O
O      0.93143  0.91667  0.36024     O
Zn     0.93402   0.2014   0.3809    Zn
Zn     0.93402   0.2986   0.8809    Zn
H      0.93434  0.29398  0.75648     H
H      0.93435  0.20608  0.25649     H
C      0.93634  0.65792  0.26729     C
C      0.93634  0.84208  0.76729     C
C      0.93741  0.00305  0.92735     C
C      0.93741  0.49695  0.42735     C
H      0.94466  0.64345  0.13021     H
H      0.94466  0.85661  0.63017     H
H      0.94605  0.61742  0.70102     H
H      0.94605  0.88258  0.20101     H
C       0.9469  0.15072  0.98022     C
C       0.9469  0.34932  0.48022     C
C      0.94778  0.57264  0.69362     C
C      0.94778  0.92736  0.19362     C
H      0.94987  0.08367  0.16533     H
H      0.94987  0.41633  0.66533     H
H      0.95025  0.73766  0.60251     H
H      0.95025  0.76234  0.10251     H
C      0.95038  0.03888  0.17282     C
C      0.95038  0.46112  0.67282     C
H      0.95178  0.53048  0.11624     H
H      0.95178  0.96953  0.61624     H
C      0.95338  0.00241  0.58496     C
C      0.95338  0.49759  0.08496     C
O      0.95543  0.00254  0.33963     O
O      0.95543  0.49746  0.83963     O
C      0.95751  0.08708  0.50442     C
C      0.95751  0.41292  0.00442     C
C      0.95991  0.13202  0.46192     C
C      0.95991  0.36802  0.96188     C
H      0.96025  0.09515  0.07707     H
H      0.96025  0.40485  0.57707     H
C      0.96112  0.67282  0.54962     C
C      0.96112  0.82718  0.04962     C
N      0.96153   0.2271  0.91789     N
N      0.96153   0.2729  0.41789     N
C      0.96162  0.65602  0.17042     C
C      0.96162  0.84402  0.67038     C
C      0.96188  0.54009  0.86802     C
C      0.96188  0.95991  0.36802     C
H      0.96953  0.61624  0.95178     H
H      0.96953  0.88376  0.45178     H
H      0.97075  0.79954   0.6697     H
H      0.97076   0.7005  0.16975     H
H      0.97323  0.67283   0.1637     H
H      0.97323  0.82717   0.6637     H
C      0.97429  0.59108  0.48478     C
C      0.97429  0.90892  0.98478     C
C      0.97552  0.18942  0.26596     C
C      0.97552  0.31062  0.76596     C
H      0.97721  0.06609  0.84043     H
H      0.97721   0.4339  0.34048     H
C      0.98018   0.5531  0.65072     C
C      0.98018   0.9469  0.15072     C
C      0.98215  0.00412    0.139     C
C      0.98215  0.49588    0.639     C
C      0.98351  0.71592  0.58052     C
C      0.98351  0.78408  0.08052     C
C      0.98478  0.52571  0.40892     C
C      0.98478  0.97429  0.90892     C
C      0.98842  0.67982  0.27742     C
C      0.98842  0.82022  0.77742     C
N      0.98845  0.17928  0.31952     N
N      0.98845  0.32072  0.81952     N
C      0.99558  0.04249  0.58708     C
C      0.99558  0.45751  0.08708     C
C      0.99588    0.639  0.51785     C
C      0.99588    0.861  0.01785     C
C      0.99695  0.07265  0.06259     C
C      0.99695  0.42735  0.56259     C
O      0.99746  0.66037  0.04457     O
O      0.99746  0.83963  0.54457     O
C      0.99759  0.08496  0.54662     C
C      0.99759  0.41504  0.04662     C
H      0.99902   0.3105  0.68005     H
H      0.99903  0.18956  0.18005     H
H      0.99979  0.63284  0.17866     H
H       0.9998  0.86718  0.67863     H
