data_I
_chemical_name_common  '/home/zhangsd/repos/MofS-CGCNN/CGCNN_MT/data/WS24v2_external_test/clean_cifs/val_40'
_cell_length_a 23.94120
_cell_length_b 23.94120
_cell_length_c 23.94120
_cell_angle_alpha 90.00000
_cell_angle_beta  90.00000
_cell_angle_gamma 90.00000
_space_group_name_H-M_alt      'P 1'


loop_
_space_group_symop_operation_xyz
  'x, y, z' 

loop_
_atom_site_label
_atom_site_fract_x
_atom_site_fract_y
_atom_site_fract_z
_atom_site_type_symbol
H      0.00101  0.57872  0.62916     H
H      0.00101  0.92128  0.12916     H
H      0.00129  0.68636   0.3151     H
H      0.00129  0.81364   0.8151     H
C      0.00295   0.5848   0.9523     C
C      0.00295   0.9152   0.4523     C
C        0.003  0.57257  0.43771     C
C        0.003  0.92743  0.93771     C
C       0.0038  0.13901   0.9816     C
C       0.0038  0.36099   0.4816     C
O      0.00434  0.16012  0.45727     O
O      0.00434  0.33988  0.95727     O
C      0.00519  0.54243  0.91271     C
C      0.00519  0.95757  0.41271     C
C      0.01008  0.17823  0.22203     C
C      0.01008  0.32177  0.72203     C
N      0.01196  0.67787  0.18046     N
N      0.01196  0.82215  0.68046     N
C      0.01469  0.02552    0.091     C
C      0.01469  0.47448    0.591     C
C      0.01651  0.21576  0.91837     C
C      0.01651  0.28424  0.41837     C
C       0.0184   0.5038  0.36099     C
C       0.0184   0.9962  0.86099     C
C      0.02032  0.05326  0.84913     C
C      0.02032  0.44674  0.34913     C
C      0.02547  0.68809  0.23399     C
C      0.02547  0.81191  0.73399     C
C      0.02552    0.091  0.01469     C
C      0.02552    0.409  0.51469     C
H      0.02568   0.1122  0.54968     H
H      0.02568   0.3878  0.04968     H
H      0.03484  0.59252  0.42495     H
H      0.03484  0.90748  0.92495     H
C      0.03735  0.03889  0.63273     C
C      0.03735  0.46111  0.13273     C
C      0.03827  0.15464  0.32981     C
C      0.03827  0.34536  0.82981     C
N       0.0386  0.72707  0.58298     N
N       0.0386  0.77295  0.08298     N
C       0.0388  0.17263  0.94933     C
C       0.0388  0.32737  0.44933     C
C      0.03889  0.63273  0.03735     C
C      0.03889  0.86727  0.53735     C
H      0.04107   0.2385  0.89705     H
H      0.04107   0.2615  0.39705     H
C      0.04243  0.58729  0.99481     C
C      0.04243  0.91271  0.49481     C
O      0.04273  0.50434  0.16012     O
O      0.04273  0.99566  0.66012     O
C       0.0477  0.50295   0.9152     C
C       0.0477  0.99705   0.4152     C
H      0.04801   0.1458  0.36725     H
H      0.04801   0.3542  0.86725     H
H      0.04968  0.02568   0.3878     H
H      0.04968  0.47432   0.8878     H
C      0.05067   0.5388  0.32737     C
C      0.05067   0.9612  0.82737     C
H      0.05131  0.57789  0.33418     H
H      0.05131  0.92211  0.83418     H
C      0.05314  0.07276  0.80591     C
C      0.05314  0.42724  0.30591     C
C      0.05326  0.65087  0.52032     C
C      0.05326  0.84913  0.02032     C
H      0.05467  0.11185  0.79925     H
H      0.05467  0.38815  0.29925     H
H      0.06144   0.7029  0.24182     H
H      0.06144   0.7971  0.74182     H
C      0.06229    0.503  0.57257     C
C      0.06229    0.997  0.07257     C
C      0.06297   0.1562  0.23237     C
C      0.06297   0.3438  0.73237     C
Zn     0.06641  0.70132  0.11954    Zn
Zn     0.06641  0.79869  0.61954    Zn
O      0.06701  0.08334  0.64117     O
O      0.06701  0.41668  0.14117     O
C      0.07257  0.06229    0.997     C
C      0.07257  0.43771    0.497     C
C      0.07276  0.69409  0.55314     C
C      0.07276  0.80591  0.05314     C
H      0.07505  0.53484  0.59252     H
H      0.07505  0.96516  0.09252     H
C      0.07611  0.14324   0.2877     C
C      0.07611  0.35676   0.7877     C
H      0.07789  0.16582  0.94869     H
H      0.07789  0.33418  0.44869     H
H      0.07872  0.62916  0.49899     H
H      0.07872  0.87084  0.99899     H
H      0.07972  0.21808  0.14246     H
H      0.07972  0.28192  0.64246     H
C      0.08163  0.51651  0.28424     C
C      0.08163  0.98349  0.78424     C
N      0.08298   0.0386  0.77295     N
N      0.08298  0.46142  0.27295     N
O      0.08334  0.64117  0.06701     O
O      0.08334  0.85885  0.56701     O
C       0.0848   0.5477  0.99705     C
C       0.0848   0.9523  0.49705     C
C      0.08729  0.50519  0.95757     C
C      0.08729  0.99481  0.45757     C
C        0.091  0.01469  0.02552     C
C        0.091  0.48531  0.52552     C
H      0.09252  0.07505  0.96516     H
H      0.09252  0.42495  0.46516     H
H      0.10295  0.54107   0.2615     H
H      0.10295  0.95893   0.7615     H
C      0.10481  0.14969  0.18732     C
C      0.10481  0.35031  0.68732     C
O      0.10599  0.18425  0.75565     O
O      0.10599  0.31575  0.25565     O
C      0.10719  0.18951  0.14447     C
C      0.10719  0.31049  0.64447     C
H      0.11106  0.12659  0.29641     H
H      0.11106  0.37341  0.79641     H
H      0.11185  0.70075  0.55467     H
H      0.11185  0.79925  0.05467     H
H       0.1122  0.54968  0.02568     H
H       0.1122  0.95032  0.52568     H
Zn     0.11954  0.06641  0.70132    Zn
Zn     0.11954  0.43359  0.20132    Zn
H      0.12659  0.20359  0.61106     H
H      0.12659  0.29641  0.11106     H
H      0.12916  0.00101  0.92128     H
H      0.12916  0.49899  0.42128     H
O      0.13242  0.70762  0.16614     O
O      0.13242   0.7924  0.66614     O
C      0.13273  0.03735  0.46111     C
C      0.13273  0.46265  0.96111     C
H      0.13275  0.54801   0.1458     H
H      0.13275  0.95199   0.6458     H
C      0.13901   0.5184   0.5038     C
C      0.13901   0.9816   0.0038     C
O      0.14117  0.06701  0.41668     O
O      0.14117  0.43301  0.91668     O
H      0.14246  0.07972  0.21808     H
H      0.14246  0.42028  0.71808     H
C      0.14324   0.2123  0.57611     C
C      0.14324   0.2877  0.07611     C
C      0.14447  0.10719  0.18951     C
C      0.14447  0.39281  0.68951     C
H       0.1458  0.13275  0.54801     H
H       0.1458  0.36725  0.04801     H
C      0.14969  0.18732  0.10481     C
C      0.14969  0.31268  0.60481     C
C      0.15087  0.52032  0.44674     C
C      0.15087  0.97968  0.94674     C
C      0.15272  0.17621  0.73468     C
C      0.15272  0.32379  0.23468     C
C      0.15464  0.17019  0.53827     C
C      0.15464  0.32981  0.03827     C
C       0.1562  0.23237  0.06297     C
C       0.1562  0.26763  0.56297     C
O      0.16012  0.04273  0.50434     O
O      0.16012  0.45727  0.00434     O
H      0.16582  0.55131  0.57789     H
H      0.16582  0.94869  0.07789     H
O      0.16614  0.13242  0.70762     O
O      0.16614   0.3676  0.20762     O
H      0.16667  0.23946  0.30506     H
H      0.16667  0.26054  0.80506     H
C      0.17019  0.53827  0.15464     C
C      0.17019  0.96173  0.65464     C
C      0.17263  0.55067   0.5388     C
C      0.17263  0.94933   0.0388     C
C      0.17621  0.73468  0.15272     C
C      0.17621  0.76532  0.65272     C
N      0.17787  0.18046  0.48806     N
N      0.17787  0.31956  0.98806     N
C      0.17823  0.22203  0.01008     C
C      0.17823  0.27797  0.51008     C
N      0.18046  0.01196  0.67787     N
N      0.18046  0.48806  0.17787     N
O      0.18425  0.74435  0.60599     O
O      0.18425  0.75565  0.10599     O
H       0.1849  0.50129  0.68636     H
H       0.1849  0.99871  0.18636     H
H      0.18636   0.1849  0.99871     H
H      0.18636   0.3151  0.49871     H
C      0.18732  0.10481  0.14969     C
C      0.18732  0.39519  0.64969     C
C      0.18809  0.23399  0.47453     C
C      0.18809  0.26601  0.97453     C
C      0.18951  0.14447  0.10719     C
C      0.18951  0.35553  0.60719     C
C      0.19409  0.55314  0.42724     C
C      0.19409  0.94686  0.92724     C
H      0.19494 0.66666667  0.23946     H
H      0.19494  0.83333  0.73946     H
C      0.19516  0.23833  0.27725     C
C      0.19516  0.26167  0.77725     C
C      0.19626  0.22148  0.73548     C
C      0.19626  0.27852  0.23548     C
H      0.20075  0.55467  0.38815     H
H      0.20075  0.94533  0.88815     H
Zn     0.20132  0.11954  0.43359    Zn
Zn     0.20132  0.38047  0.93359    Zn
H       0.2029  0.24182  0.43856     H
H       0.2029  0.25818  0.93856     H
H      0.20359  0.61106  0.12659     H
H      0.20359  0.88894  0.62659     H
O      0.20762  0.16614   0.3676     O
O      0.20762  0.33388   0.8676     O
C       0.2123  0.57611  0.14324     C
C       0.2123  0.92389  0.64324     C
C      0.21576  0.58163  0.51651     C
C      0.21576  0.91837  0.01651     C
H      0.21808  0.14246  0.07972     H
H      0.21808  0.35754  0.57972     H
C      0.22148  0.73548  0.19626     C
C      0.22148  0.76452  0.69626     C
C      0.22203  0.01008  0.17823     C
C      0.22203  0.48992  0.67823     C
C      0.22275  0.69516  0.23833     C
C      0.22275  0.80484  0.73833     C
N      0.22707  0.58298  0.46142     N
N      0.22707  0.91704  0.96142     N
C      0.23237  0.06297   0.1562     C
C      0.23237  0.43703   0.6562     C
C      0.23399  0.02547  0.68809     C
C      0.23399  0.47453  0.18809     C
C      0.23468  0.15272  0.32379     C
C      0.23468  0.34728  0.82379     C
C      0.23548  0.19626  0.27852     C
C      0.23548  0.30374  0.77852     C
C      0.23833  0.22275  0.69516     C
C      0.23833  0.27725  0.19516     C
H       0.2385  0.60295  0.54107     H
H       0.2385  0.89705  0.04107     H
H      0.23946  0.19494 0.66666667     H
H      0.23946  0.30506  0.16667     H
H      0.24182  0.06144   0.7029     H
H      0.24182  0.43856   0.2029     H
O      0.24435  0.60599  0.31575     O
O      0.24435  0.89401  0.81575     O
O      0.25565  0.10599  0.31575     O
O      0.25565  0.39401  0.81575     O
H      0.25818  0.56144   0.7029     H
H      0.25818  0.93856   0.2029     H
H      0.26054  0.69494 0.66666667     H
H      0.26054  0.80506  0.16667     H
H       0.2615  0.10295  0.54107     H
H       0.2615  0.39705  0.04107     H
C      0.26167  0.72275  0.69516     C
C      0.26167  0.77725  0.19516     C
C      0.26452  0.69626  0.27852     C
C      0.26452  0.80374  0.77852     C
C      0.26532  0.65272  0.32379     C
C      0.26532  0.84728  0.82379     C
C      0.26601  0.52547  0.68809     C
C      0.26601  0.97453  0.18809     C
C      0.26763  0.56297   0.1562     C
C      0.26763  0.93703   0.6562     C
N      0.27295  0.08298  0.46142     N
N      0.27295  0.41704  0.96142     N
C      0.27725  0.19516  0.23833     C
C      0.27725  0.30484  0.73833     C
C      0.27797  0.51008  0.17823     C
C      0.27797  0.98992  0.67823     C
C      0.27852  0.23548  0.19626     C
C      0.27852  0.26452  0.69626     C
H      0.28192  0.64246  0.07972     H
H      0.28192  0.85754  0.57972     H
C      0.28424  0.08163  0.51651     C
C      0.28424  0.41837  0.01651     C
C       0.2877  0.07611  0.14324     C
C       0.2877  0.42389  0.64324     C
O       0.2924  0.66614   0.3676     O
O       0.2924  0.83388   0.8676     O
H      0.29641  0.11106  0.12659     H
H      0.29641  0.38894  0.62659     H
H       0.2971  0.74182  0.43856     H
H       0.2971  0.75818  0.93856     H
Zn     0.29869  0.61954  0.43359    Zn
Zn     0.29869  0.88047  0.93359    Zn
H      0.29925  0.05467  0.38815     H
H      0.29925  0.44533  0.88815     H
C      0.30374  0.72148  0.73548     C
C      0.30374  0.77852  0.23548     C
C      0.30484  0.73833  0.27725     C
C      0.30484  0.76167  0.77725     C
H      0.30506  0.16667  0.23946     H
H      0.30506 0.33333333  0.73946     H
C      0.30591  0.05314  0.42724     C
C      0.30591  0.44686  0.92724     C
C      0.31049  0.64447  0.10719     C
C      0.31049  0.85553  0.60719     C
C      0.31191  0.73399  0.47453     C
C      0.31191  0.76601  0.97453     C
C      0.31268  0.60481  0.14969     C
C      0.31268  0.89519  0.64969     C
H      0.31364   0.6849  0.99871     H
H      0.31364   0.8151  0.49871     H
H       0.3151  0.00129  0.68636     H
H       0.3151  0.49871  0.18636     H
O      0.31575  0.24435  0.60599     O
O      0.31575  0.25565  0.10599     O
N      0.31956  0.51196  0.67787     N
N      0.31956  0.98806  0.17787     N
C      0.32177  0.72203  0.01008     C
C      0.32177  0.77797  0.51008     C
N      0.32215  0.68046  0.48806     N
N      0.32215  0.81956  0.98806     N
C      0.32379  0.23468  0.15272     C
C      0.32379  0.26532  0.65272     C
C      0.32737  0.05067   0.5388     C
C      0.32737  0.44933   0.0388     C
C      0.32981  0.03827  0.15464     C
C      0.32981  0.46173  0.65464     C
H     0.33333333  0.73946  0.30506     H
H     0.33333333  0.76054  0.80506     H
O      0.33388  0.63242  0.70762     O
O      0.33388   0.8676  0.20762     O
H      0.33418  0.05131  0.57789     H
H      0.33418  0.44869  0.07789     H
O      0.33988  0.54273  0.50434     O
O      0.33988  0.95727  0.00434     O
C       0.3438  0.73237  0.06297     C
C       0.3438  0.76763  0.56297     C
C      0.34536  0.67019  0.53827     C
C      0.34536  0.82981  0.03827     C
C      0.34728  0.67621  0.73468     C
C      0.34728  0.82379  0.23468     C
C      0.34913  0.02032  0.44674     C
C      0.34913  0.47968  0.94674     C
C      0.35031  0.68732  0.10481     C
C      0.35031  0.81268  0.60481     C
H       0.3542  0.63275  0.54801     H
H       0.3542  0.86725  0.04801     H
C      0.35553  0.60719  0.18951     C
C      0.35553  0.89281  0.68951     C
C      0.35676   0.7123  0.57611     C
C      0.35676   0.7877  0.07611     C
H      0.35754  0.57972  0.21808     H
H      0.35754  0.92028  0.71808     H
O      0.35885  0.56701  0.41668     O
O      0.35885  0.93301  0.91668     O
C      0.36099   0.0184   0.5038     C
C      0.36099   0.4816   0.0038     C
H      0.36725  0.04801   0.1458     H
H      0.36725  0.45199   0.6458     H
C      0.36727  0.53735  0.46111     C
C      0.36727  0.96265  0.96111     C
O       0.3676  0.20762  0.16614     O
O       0.3676   0.2924  0.66614     O
H      0.37084  0.50101  0.92128     H
H      0.37084  0.99899  0.42128     H
H      0.37341  0.70359  0.61106     H
H      0.37341  0.79641  0.11106     H
Zn     0.38047  0.56641  0.70132    Zn
Zn     0.38047  0.93359  0.20132    Zn
H       0.3878  0.04968  0.02568     H
H       0.3878  0.45032  0.52568     H
H      0.38815  0.20075  0.55467     H
H      0.38815  0.29925  0.05467     H
H      0.38894  0.62659  0.29641     H
H      0.38894  0.87341  0.79641     H
C      0.39281  0.68951  0.14447     C
C      0.39281  0.81049  0.64447     C
O      0.39401  0.68425  0.75565     O
O      0.39401  0.81575  0.25565     O
C      0.39519  0.64969  0.18732     C
C      0.39519  0.85031  0.68732     C
H      0.39705  0.04107   0.2615     H
H      0.39705  0.45893   0.7615     H
H      0.40748  0.57505  0.96516     H
H      0.40748  0.92495  0.46516     H
C        0.409  0.51469  0.02552     C
C        0.409  0.98531  0.52552     C
C      0.41271  0.00519  0.95757     C
C      0.41271  0.49481  0.45757     C
C       0.4152   0.0477  0.99705     C
C       0.4152   0.4523  0.49705     C
O      0.41668  0.14117  0.06701     O
O      0.41668  0.35885  0.56701     O
N      0.41704   0.5386  0.77295     N
N      0.41704  0.96142  0.27295     N
C      0.41837  0.01651  0.28424     C
C      0.41837  0.48349  0.78424     C
H      0.42028  0.71808  0.14246     H
H      0.42028  0.78192  0.64246     H
H      0.42128  0.12916  0.49899     H
H      0.42128  0.37084  0.99899     H
H      0.42211  0.66582  0.94869     H
H      0.42211  0.83418  0.44869     H
C      0.42389  0.64324   0.2877     C
C      0.42389  0.85676   0.7877     C
H      0.42495  0.03484  0.59252     H
H      0.42495  0.46516  0.09252     H
C      0.42724  0.19409  0.55314     C
C      0.42724  0.30591  0.05314     C
C      0.42743  0.56229    0.997     C
C      0.42743  0.93771    0.497     C
O      0.43301  0.58334  0.64117     O
O      0.43301  0.91668  0.14117     O
Zn     0.43359  0.20132  0.11954    Zn
Zn     0.43359  0.29869  0.61954    Zn
C      0.43703   0.6562  0.23237     C
C      0.43703   0.8438  0.73237     C
C      0.43771    0.003  0.57257     C
C      0.43771    0.497  0.07257     C
H      0.43856   0.2029  0.24182     H
H      0.43856   0.2971  0.74182     H
H      0.44533  0.61185  0.79925     H
H      0.44533  0.88815  0.29925     H
C      0.44674  0.15087  0.52032     C
C      0.44674  0.34913  0.02032     C
C      0.44686  0.57276  0.80591     C
C      0.44686  0.92724  0.30591     C
H      0.44869  0.07789  0.33418     H
H      0.44869  0.42211  0.83418     H
C      0.44933   0.0388  0.32737     C
C      0.44933   0.4612  0.82737     C
H      0.45032  0.52568   0.3878     H
H      0.45032  0.97432   0.8878     H
H      0.45199   0.6458  0.36725     H
H      0.45199   0.8542  0.86725     H
C       0.4523  0.00295   0.9152     C
C       0.4523  0.49705   0.4152     C
O      0.45727  0.00434  0.16012     O
O      0.45727  0.49566  0.66012     O
C      0.45757  0.08729  0.99481     C
C      0.45757  0.41271  0.49481     C
H      0.45893   0.7385  0.89705     H
H      0.45893   0.7615  0.39705     H
C      0.46111  0.13273  0.03735     C
C      0.46111  0.36727  0.53735     C
C       0.4612  0.67263  0.94933     C
C       0.4612  0.82737  0.44933     C
N      0.46142  0.22707  0.58298     N
N      0.46142  0.27295  0.08298     N
C      0.46173  0.65464  0.32981     C
C      0.46173  0.84536  0.82981     C
C      0.46265  0.53889  0.63273     C
C      0.46265  0.96111  0.13273     C
H      0.46516  0.09252  0.42495     H
H      0.46516  0.40748  0.92495     H
H      0.47432   0.6122  0.54968     H
H      0.47432   0.8878  0.04968     H
C      0.47448    0.591  0.01469     C
C      0.47448    0.909  0.51469     C
C      0.47453  0.18809  0.23399     C
C      0.47453  0.31191  0.73399     C
C      0.47968  0.55326  0.84913     C
C      0.47968  0.94674  0.34913     C
C       0.4816   0.0038  0.36099     C
C       0.4816   0.4962  0.86099     C
C      0.48349  0.71576  0.91837     C
C      0.48349  0.78424  0.41837     C
C      0.48531  0.52552    0.091     C
C      0.48531  0.97448    0.591     C
N      0.48806  0.17787  0.18046     N
N      0.48806  0.32215  0.68046     N
C      0.48992  0.67823  0.22203     C
C      0.48992  0.82177  0.72203     C
C      0.49481  0.04243  0.91271     C
C      0.49481  0.45757  0.41271     C
O      0.49566  0.66012  0.45727     O
O      0.49566  0.83988  0.95727     O
C       0.4962  0.63901   0.9816     C
C       0.4962  0.86099   0.4816     C
C        0.497  0.07257  0.43771     C
C        0.497  0.42743  0.93771     C
C      0.49705   0.0848   0.9523     C
C      0.49705   0.4152   0.4523     C
H      0.49871  0.18636   0.3151     H
H      0.49871  0.31364   0.8151     H
H      0.49899  0.07872  0.62916     H
H      0.49899  0.42128  0.12916     H
H      0.50101  0.57872  0.87084     H
H      0.50101  0.92128  0.37084     H
H      0.50129  0.68636   0.1849     H
H      0.50129  0.81364   0.6849     H
C      0.50295   0.5848   0.5477     C
C      0.50295   0.9152   0.0477     C
C        0.503  0.57257  0.06229     C
C        0.503  0.92743  0.56229     C
C       0.5038  0.13901   0.5184     C
C       0.5038  0.36099   0.0184     C
O      0.50434  0.16012  0.04273     O
O      0.50434  0.33988  0.54273     O
C      0.50519  0.54243  0.58729     C
C      0.50519  0.95757  0.08729     C
C      0.51008  0.17823  0.27797     C
C      0.51008  0.32177  0.77797     C
N      0.51196  0.67787  0.31956     N
N      0.51196  0.82215  0.81956     N
C      0.51469  0.02552    0.409     C
C      0.51469  0.47448    0.909     C
C      0.51651  0.21576  0.58163     C
C      0.51651  0.28424  0.08163     C
C       0.5184   0.5038  0.13901     C
C       0.5184   0.9962  0.63901     C
C      0.52032  0.05326  0.65087     C
C      0.52032  0.44674  0.15087     C
C      0.52547  0.68809  0.26601     C
C      0.52547  0.81191  0.76601     C
C      0.52552    0.091  0.48531     C
C      0.52552    0.409  0.98531     C
H      0.52568   0.1122  0.95032     H
H      0.52568   0.3878  0.45032     H
H      0.53484  0.59252  0.07505     H
H      0.53484  0.90748  0.57505     H
C      0.53735  0.03889  0.86727     C
C      0.53735  0.46111  0.36727     C
C      0.53827  0.15464  0.17019     C
C      0.53827  0.34536  0.67019     C
N       0.5386  0.72707  0.91704     N
N       0.5386  0.77295  0.41704     N
C       0.5388  0.17263  0.55067     C
C       0.5388  0.32737  0.05067     C
C      0.53889  0.63273  0.46265     C
C      0.53889  0.86727  0.96265     C
H      0.54107   0.2385  0.60295     H
H      0.54107   0.2615  0.10295     H
C      0.54243  0.58729  0.50519     C
C      0.54243  0.91271  0.00519     C
O      0.54273  0.50434  0.33988     O
O      0.54273  0.99566  0.83988     O
C       0.5477  0.50295   0.5848     C
C       0.5477  0.99705   0.0848     C
H      0.54801   0.1458  0.13275     H
H      0.54801   0.3542  0.63275     H
H      0.54968  0.02568   0.1122     H
H      0.54968  0.47432   0.6122     H
C      0.55067   0.5388  0.17263     C
C      0.55067   0.9612  0.67263     C
H      0.55131  0.57789  0.16582     H
H      0.55131  0.92211  0.66582     H
C      0.55314  0.07276  0.69409     C
C      0.55314  0.42724  0.19409     C
C      0.55326  0.65087  0.97968     C
C      0.55326  0.84913  0.47968     C
H      0.55467  0.11185  0.70075     H
H      0.55467  0.38815  0.20075     H
H      0.56144   0.7029  0.25818     H
H      0.56144   0.7971  0.75818     H
C      0.56229    0.503  0.92743     C
C      0.56229    0.997  0.42743     C
C      0.56297   0.1562  0.26763     C
C      0.56297   0.3438  0.76763     C
Zn     0.56641  0.70132  0.38047    Zn
Zn     0.56641  0.79869  0.88047    Zn
O      0.56701  0.08334  0.85885     O
O      0.56701  0.41668  0.35885     O
C      0.57257  0.06229    0.503     C
C      0.57257  0.43771    0.003     C
C      0.57276  0.69409  0.94686     C
C      0.57276  0.80591  0.44686     C
H      0.57505  0.53484  0.90748     H
H      0.57505  0.96516  0.40748     H
C      0.57611  0.14324   0.2123     C
C      0.57611  0.35676   0.7123     C
H      0.57789  0.16582  0.55131     H
H      0.57789  0.33418  0.05131     H
H      0.57872  0.62916  0.00101     H
H      0.57872  0.87084  0.50101     H
H      0.57972  0.21808  0.35754     H
H      0.57972  0.28192  0.85754     H
C      0.58163  0.51651  0.21576     C
C      0.58163  0.98349  0.71576     C
N      0.58298   0.0386  0.72707     N
N      0.58298  0.46142  0.22707     N
O      0.58334  0.64117  0.43301     O
O      0.58334  0.85885  0.93301     O
C       0.5848   0.5477  0.50295     C
C       0.5848   0.9523  0.00295     C
C      0.58729  0.50519  0.54243     C
C      0.58729  0.99481  0.04243     C
C        0.591  0.01469  0.47448     C
C        0.591  0.48531  0.97448     C
H      0.59252  0.07505  0.53484     H
H      0.59252  0.42495  0.03484     H
H      0.60295  0.54107   0.2385     H
H      0.60295  0.95893   0.7385     H
C      0.60481  0.14969  0.31268     C
C      0.60481  0.35031  0.81268     C
O      0.60599  0.18425  0.74435     O
O      0.60599  0.31575  0.24435     O
C      0.60719  0.18951  0.35553     C
C      0.60719  0.31049  0.85553     C
H      0.61106  0.12659  0.20359     H
H      0.61106  0.37341  0.70359     H
H      0.61185  0.70075  0.94533     H
H      0.61185  0.79925  0.44533     H
H       0.6122  0.54968  0.47432     H
H       0.6122  0.95032  0.97432     H
Zn     0.61954  0.06641  0.79869    Zn
Zn     0.61954  0.43359  0.29869    Zn
H      0.62659  0.20359  0.88894     H
H      0.62659  0.29641  0.38894     H
H      0.62916  0.00101  0.57872     H
H      0.62916  0.49899  0.07872     H
O      0.63242  0.70762  0.33388     O
O      0.63242   0.7924  0.83388     O
C      0.63273  0.03735  0.03889     C
C      0.63273  0.46265  0.53889     C
H      0.63275  0.54801   0.3542     H
H      0.63275  0.95199   0.8542     H
C      0.63901   0.5184   0.9962     C
C      0.63901   0.9816   0.4962     C
O      0.64117  0.06701  0.08334     O
O      0.64117  0.43301  0.58334     O
H      0.64246  0.07972  0.28192     H
H      0.64246  0.42028  0.78192     H
C      0.64324   0.2123  0.92389     C
C      0.64324   0.2877  0.42389     C
C      0.64447  0.10719  0.31049     C
C      0.64447  0.39281  0.81049     C
H       0.6458  0.13275  0.95199     H
H       0.6458  0.36725  0.45199     H
C      0.64969  0.18732  0.39519     C
C      0.64969  0.31268  0.89519     C
C      0.65087  0.52032  0.05326     C
C      0.65087  0.97968  0.55326     C
C      0.65272  0.17621  0.76532     C
C      0.65272  0.32379  0.26532     C
C      0.65464  0.17019  0.96173     C
C      0.65464  0.32981  0.46173     C
C       0.6562  0.23237  0.43703     C
C       0.6562  0.26763  0.93703     C
O      0.66012  0.04273  0.99566     O
O      0.66012  0.45727  0.49566     O
H      0.66582  0.55131  0.92211     H
H      0.66582  0.94869  0.42211     H
O      0.66614  0.13242   0.7924     O
O      0.66614   0.3676   0.2924     O
H     0.66666667  0.23946  0.19494     H
H     0.66666667  0.26054  0.69494     H
C      0.67019  0.53827  0.34536     C
C      0.67019  0.96173  0.84536     C
C      0.67263  0.55067   0.9612     C
C      0.67263  0.94933   0.4612     C
C      0.67621  0.73468  0.34728     C
C      0.67621  0.76532  0.84728     C
N      0.67787  0.18046  0.01196     N
N      0.67787  0.31956  0.51196     N
C      0.67823  0.22203  0.48992     C
C      0.67823  0.27797  0.98992     C
N      0.68046  0.01196  0.82215     N
N      0.68046  0.48806  0.32215     N
O      0.68425  0.74435  0.89401     O
O      0.68425  0.75565  0.39401     O
H       0.6849  0.50129  0.81364     H
H       0.6849  0.99871  0.31364     H
H      0.68636   0.1849  0.50129     H
H      0.68636   0.3151  0.00129     H
C      0.68732  0.10481  0.35031     C
C      0.68732  0.39519  0.85031     C
C      0.68809  0.23399  0.02547     C
C      0.68809  0.26601  0.52547     C
C      0.68951  0.14447  0.39281     C
C      0.68951  0.35553  0.89281     C
C      0.69409  0.55314  0.07276     C
C      0.69409  0.94686  0.57276     C
H      0.69494 0.66666667  0.26054     H
H      0.69494  0.83333  0.76054     H
C      0.69516  0.23833  0.22275     C
C      0.69516  0.26167  0.72275     C
C      0.69626  0.22148  0.76452     C
C      0.69626  0.27852  0.26452     C
H      0.70075  0.55467  0.11185     H
H      0.70075  0.94533  0.61185     H
Zn     0.70132  0.11954  0.06641    Zn
Zn     0.70132  0.38047  0.56641    Zn
H       0.7029  0.24182  0.06144     H
H       0.7029  0.25818  0.56144     H
H      0.70359  0.61106  0.37341     H
H      0.70359  0.88894  0.87341     H
O      0.70762  0.16614  0.13242     O
O      0.70762  0.33388  0.63242     O
C       0.7123  0.57611  0.35676     C
C       0.7123  0.92389  0.85676     C
C      0.71576  0.58163  0.98349     C
C      0.71576  0.91837  0.48349     C
H      0.71808  0.14246  0.42028     H
H      0.71808  0.35754  0.92028     H
C      0.72148  0.73548  0.30374     C
C      0.72148  0.76452  0.80374     C
C      0.72203  0.01008  0.32177     C
C      0.72203  0.48992  0.82177     C
C      0.72275  0.69516  0.26167     C
C      0.72275  0.80484  0.76167     C
N      0.72707  0.58298   0.0386     N
N      0.72707  0.91704   0.5386     N
C      0.73237  0.06297   0.3438     C
C      0.73237  0.43703   0.8438     C
C      0.73399  0.02547  0.81191     C
C      0.73399  0.47453  0.31191     C
C      0.73468  0.15272  0.17621     C
C      0.73468  0.34728  0.67621     C
C      0.73548  0.19626  0.22148     C
C      0.73548  0.30374  0.72148     C
C      0.73833  0.22275  0.80484     C
C      0.73833  0.27725  0.30484     C
H       0.7385  0.60295  0.95893     H
H       0.7385  0.89705  0.45893     H
H      0.73946  0.19494  0.83333     H
H      0.73946  0.30506 0.33333333     H
H      0.74182  0.06144   0.7971     H
H      0.74182  0.43856   0.2971     H
O      0.74435  0.60599  0.18425     O
O      0.74435  0.89401  0.68425     O
O      0.75565  0.10599  0.18425     O
O      0.75565  0.39401  0.68425     O
H      0.75818  0.56144   0.7971     H
H      0.75818  0.93856   0.2971     H
H      0.76054  0.69494  0.83333     H
H      0.76054  0.80506 0.33333333     H
H       0.7615  0.10295  0.95893     H
H       0.7615  0.39705  0.45893     H
C      0.76167  0.72275  0.80484     C
C      0.76167  0.77725  0.30484     C
C      0.76452  0.69626  0.22148     C
C      0.76452  0.80374  0.72148     C
C      0.76532  0.65272  0.17621     C
C      0.76532  0.84728  0.67621     C
C      0.76601  0.52547  0.81191     C
C      0.76601  0.97453  0.31191     C
C      0.76763  0.56297   0.3438     C
C      0.76763  0.93703   0.8438     C
N      0.77295  0.08298   0.0386     N
N      0.77295  0.41704   0.5386     N
C      0.77725  0.19516  0.26167     C
C      0.77725  0.30484  0.76167     C
C      0.77797  0.51008  0.32177     C
C      0.77797  0.98992  0.82177     C
C      0.77852  0.23548  0.30374     C
C      0.77852  0.26452  0.80374     C
H      0.78192  0.64246  0.42028     H
H      0.78192  0.85754  0.92028     H
C      0.78424  0.08163  0.98349     C
C      0.78424  0.41837  0.48349     C
C       0.7877  0.07611  0.35676     C
C       0.7877  0.42389  0.85676     C
O       0.7924  0.66614  0.13242     O
O       0.7924  0.83388  0.63242     O
H      0.79641  0.11106  0.37341     H
H      0.79641  0.38894  0.87341     H
H       0.7971  0.74182  0.06144     H
H       0.7971  0.75818  0.56144     H
Zn     0.79869  0.61954  0.06641    Zn
Zn     0.79869  0.88047  0.56641    Zn
H      0.79925  0.05467  0.11185     H
H      0.79925  0.44533  0.61185     H
C      0.80374  0.72148  0.76452     C
C      0.80374  0.77852  0.26452     C
C      0.80484  0.73833  0.22275     C
C      0.80484  0.76167  0.72275     C
H      0.80506  0.16667  0.26054     H
H      0.80506 0.33333333  0.76054     H
C      0.80591  0.05314  0.07276     C
C      0.80591  0.44686  0.57276     C
C      0.81049  0.64447  0.39281     C
C      0.81049  0.85553  0.89281     C
C      0.81191  0.73399  0.02547     C
C      0.81191  0.76601  0.52547     C
C      0.81268  0.60481  0.35031     C
C      0.81268  0.89519  0.85031     C
H      0.81364   0.6849  0.50129     H
H      0.81364   0.8151  0.00129     H
H       0.8151  0.00129  0.81364     H
H       0.8151  0.49871  0.31364     H
O      0.81575  0.24435  0.89401     O
O      0.81575  0.25565  0.39401     O
N      0.81956  0.51196  0.82215     N
N      0.81956  0.98806  0.32215     N
C      0.82177  0.72203  0.48992     C
C      0.82177  0.77797  0.98992     C
N      0.82215  0.68046  0.01196     N
N      0.82215  0.81956  0.51196     N
C      0.82379  0.23468  0.34728     C
C      0.82379  0.26532  0.84728     C
C      0.82737  0.05067   0.9612     C
C      0.82737  0.44933   0.4612     C
C      0.82981  0.03827  0.34536     C
C      0.82981  0.46173  0.84536     C
H      0.83333  0.73946  0.19494     H
H      0.83333  0.76054  0.69494     H
O      0.83388  0.63242   0.7924     O
O      0.83388   0.8676   0.2924     O
H      0.83418  0.05131  0.92211     H
H      0.83418  0.44869  0.42211     H
O      0.83988  0.54273  0.99566     O
O      0.83988  0.95727  0.49566     O
C       0.8438  0.73237  0.43703     C
C       0.8438  0.76763  0.93703     C
C      0.84536  0.67019  0.96173     C
C      0.84536  0.82981  0.46173     C
C      0.84728  0.67621  0.76532     C
C      0.84728  0.82379  0.26532     C
C      0.84913  0.02032  0.05326     C
C      0.84913  0.47968  0.55326     C
C      0.85031  0.68732  0.39519     C
C      0.85031  0.81268  0.89519     C
H       0.8542  0.63275  0.95199     H
H       0.8542  0.86725  0.45199     H
C      0.85553  0.60719  0.31049     C
C      0.85553  0.89281  0.81049     C
C      0.85676   0.7123  0.92389     C
C      0.85676   0.7877  0.42389     C
H      0.85754  0.57972  0.28192     H
H      0.85754  0.92028  0.78192     H
O      0.85885  0.56701  0.08334     O
O      0.85885  0.93301  0.58334     O
C      0.86099   0.0184   0.9962     C
C      0.86099   0.4816   0.4962     C
H      0.86725  0.04801   0.3542     H
H      0.86725  0.45199   0.8542     H
C      0.86727  0.53735  0.03889     C
C      0.86727  0.96265  0.53889     C
O       0.8676  0.20762  0.33388     O
O       0.8676   0.2924  0.83388     O
H      0.87084  0.50101  0.57872     H
H      0.87084  0.99899  0.07872     H
H      0.87341  0.70359  0.88894     H
H      0.87341  0.79641  0.38894     H
Zn     0.88047  0.56641  0.79869    Zn
Zn     0.88047  0.93359  0.29869    Zn
H       0.8878  0.04968  0.47432     H
H       0.8878  0.45032  0.97432     H
H      0.88815  0.20075  0.94533     H
H      0.88815  0.29925  0.44533     H
H      0.88894  0.62659  0.20359     H
H      0.88894  0.87341  0.70359     H
C      0.89281  0.68951  0.35553     C
C      0.89281  0.81049  0.85553     C
O      0.89401  0.68425  0.74435     O
O      0.89401  0.81575  0.24435     O
C      0.89519  0.64969  0.31268     C
C      0.89519  0.85031  0.81268     C
H      0.89705  0.04107   0.2385     H
H      0.89705  0.45893   0.7385     H
H      0.90748  0.57505  0.53484     H
H      0.90748  0.92495  0.03484     H
C        0.909  0.51469  0.47448     C
C        0.909  0.98531  0.97448     C
C      0.91271  0.00519  0.54243     C
C      0.91271  0.49481  0.04243     C
C       0.9152   0.0477  0.50295     C
C       0.9152   0.4523  0.00295     C
O      0.91668  0.14117  0.43301     O
O      0.91668  0.35885  0.93301     O
N      0.91704   0.5386  0.72707     N
N      0.91704  0.96142  0.22707     N
C      0.91837  0.01651  0.21576     C
C      0.91837  0.48349  0.71576     C
H      0.92028  0.71808  0.35754     H
H      0.92028  0.78192  0.85754     H
H      0.92128  0.12916  0.00101     H
H      0.92128  0.37084  0.50101     H
H      0.92211  0.66582  0.55131     H
H      0.92211  0.83418  0.05131     H
C      0.92389  0.64324   0.2123     C
C      0.92389  0.85676   0.7123     C
H      0.92495  0.03484  0.90748     H
H      0.92495  0.46516  0.40748     H
C      0.92724  0.19409  0.94686     C
C      0.92724  0.30591  0.44686     C
C      0.92743  0.56229    0.503     C
C      0.92743  0.93771    0.003     C
O      0.93301  0.58334  0.85885     O
O      0.93301  0.91668  0.35885     O
Zn     0.93359  0.20132  0.38047    Zn
Zn     0.93359  0.29869  0.88047    Zn
C      0.93703   0.6562  0.26763     C
C      0.93703   0.8438  0.76763     C
C      0.93771    0.003  0.92743     C
C      0.93771    0.497  0.42743     C
H      0.93856   0.2029  0.25818     H
H      0.93856   0.2971  0.75818     H
H      0.94533  0.61185  0.70075     H
H      0.94533  0.88815  0.20075     H
C      0.94674  0.15087  0.97968     C
C      0.94674  0.34913  0.47968     C
C      0.94686  0.57276  0.69409     C
C      0.94686  0.92724  0.19409     C
H      0.94869  0.07789  0.16582     H
H      0.94869  0.42211  0.66582     H
C      0.94933   0.0388  0.17263     C
C      0.94933   0.4612  0.67263     C
H      0.95032  0.52568   0.1122     H
H      0.95032  0.97432   0.6122     H
H      0.95199   0.6458  0.13275     H
H      0.95199   0.8542  0.63275     H
C       0.9523  0.00295   0.5848     C
C       0.9523  0.49705   0.0848     C
O      0.95727  0.00434  0.33988     O
O      0.95727  0.49566  0.83988     O
C      0.95757  0.08729  0.50519     C
C      0.95757  0.41271  0.00519     C
H      0.95893   0.7385  0.60295     H
H      0.95893   0.7615  0.10295     H
C      0.96111  0.13273  0.46265     C
C      0.96111  0.36727  0.96265     C
C       0.9612  0.67263  0.55067     C
C       0.9612  0.82737  0.05067     C
N      0.96142  0.22707  0.91704     N
N      0.96142  0.27295  0.41704     N
C      0.96173  0.65464  0.17019     C
C      0.96173  0.84536  0.67019     C
C      0.96265  0.53889  0.86727     C
C      0.96265  0.96111  0.36727     C
H      0.96516  0.09252  0.07505     H
H      0.96516  0.40748  0.57505     H
H      0.97432   0.6122  0.95032     H
H      0.97432   0.8878  0.45032     H
C      0.97448    0.591  0.48531     C
C      0.97448    0.909  0.98531     C
C      0.97453  0.18809  0.26601     C
C      0.97453  0.31191  0.76601     C
C      0.97968  0.55326  0.65087     C
C      0.97968  0.94674  0.15087     C
C       0.9816   0.0038  0.13901     C
C       0.9816   0.4962  0.63901     C
C      0.98349  0.71576  0.58163     C
C      0.98349  0.78424  0.08163     C
C      0.98531  0.52552    0.409     C
C      0.98531  0.97448    0.909     C
N      0.98806  0.17787  0.31956     N
N      0.98806  0.32215  0.81956     N
C      0.98992  0.67823  0.27797     C
C      0.98992  0.82177  0.77797     C
C      0.99481  0.04243  0.58729     C
C      0.99481  0.45757  0.08729     C
O      0.99566  0.66012  0.04273     O
O      0.99566  0.83988  0.54273     O
C       0.9962  0.63901   0.5184     C
C       0.9962  0.86099   0.0184     C
C        0.997  0.07257  0.06229     C
C        0.997  0.42743  0.56229     C
C      0.99705   0.0848   0.5477     C
C      0.99705   0.4152   0.0477     C
H      0.99871  0.18636   0.1849     H
H      0.99871  0.31364   0.6849     H
H      0.99899  0.07872  0.87084     H
H      0.99899  0.42128  0.37084     H
