data_I
_chemical_name_common  '/home/zhangsd/repos/MofS-CGCNN/CGCNN_MT/data/WS24v2_external_test/clean_cifs/val_24'
_cell_length_a 12.53620
_cell_length_b 12.53620
_cell_length_c 12.90140
_cell_angle_alpha 90.00000
_cell_angle_beta  90.00000
_cell_angle_gamma 90.00000
_space_group_name_H-M_alt      'P 1'


loop_
_space_group_symop_operation_xyz
  'x, y, z' 

loop_
_atom_site_label
_atom_site_fract_x
_atom_site_fract_y
_atom_site_fract_z
_atom_site_type_symbol
C      0.00367  0.01957  0.60812     C
C      0.00367  0.48057  0.10812     C
H      0.00455   0.2018  0.11329     H
H      0.00455   0.2982  0.61329     H
S      0.01881  0.03061  0.74485     S
S      0.01881  0.46941  0.24485     S
H      0.04271  0.19154  0.99534     H
H      0.04271  0.30846  0.49534     H
C       0.0617   0.0617  0.43212     C
C       0.0617   0.4383  0.93208     C
C      0.06187  0.08337  0.53962     C
C      0.06187  0.41677  0.03962     C
C      0.06674  0.19674  0.06754     C
C      0.06674  0.30334  0.56754     C
O      0.09242  0.21894  0.33629     O
O      0.09242  0.28106  0.83629     O
H      0.09979  0.64149   0.6637     H
C      0.10065  0.61287  0.73423     C
H      0.10123  0.67175   0.7842     H
H      0.10829  0.13317  0.08539     H
H      0.10829  0.36684  0.58539     H
C      0.13064  0.13064  0.36182     C
C      0.13064  0.36936  0.86178     C
H      0.13317  0.39171  0.58539     H
S      0.14942  0.18495  0.58303     S
S      0.14942  0.31507  0.08303     S
Cu     0.16054  0.16054  0.75431    Cu
Cu     0.16054  0.33946  0.25431    Cu
H      0.16456   0.5689  0.74402     H
H      0.19154  0.45729  0.49534     H
C      0.19674  0.43334  0.56754     C
H       0.2018  0.49545  0.61329     H
O      0.21894  0.09242  0.33629     O
O      0.21894  0.40758  0.83629     O
O      0.28106  0.09242  0.83629     O
O      0.28106  0.40758  0.33629     O
S      0.31507   0.3506  0.58303     S
H      0.32825  0.60123   0.7158     H
H      0.33544   0.5689  0.24402     H
H      0.33544   0.9311  0.74402     H
Cu     0.33946  0.16054  0.25431    Cu
Cu     0.33946  0.33946  0.75431    Cu
S       0.3506  0.18495  0.08303     S
H      0.35851  0.59979   0.8363     H
C      0.36936  0.13064  0.86178     C
C      0.36936  0.36936  0.36182     C
C      0.38727  0.60065  0.76577     C
H      0.39171  0.36684  0.08539     H
H      0.39877  0.67175   0.2842     H
H      0.39877  0.82825   0.7842     H
C      0.39945  0.61287  0.23437     C
C      0.39945  0.88713  0.73423     C
H      0.40021  0.64149   0.1637     H
H      0.40021  0.85851   0.6637     H
O      0.40758  0.21894  0.83629     O
O      0.40758  0.28106  0.33629     O
C      0.41677  0.43827  0.53962     C
H       0.4311  0.66456  0.75598     H
C      0.43334  0.30334  0.06754     C
C      0.43827  0.08337  0.03962     C
C       0.4383   0.0617  0.93208     C
C       0.4383   0.4383  0.43212     C
H      0.45729  0.30846  0.99534     H
S      0.46941  0.48121  0.74485     S
C      0.48057  0.49647  0.60812     C
S      0.48121  0.03061  0.24485     S
H      0.49545   0.2982  0.11329     H
C      0.49647  0.01957  0.10812     C
C      0.50367  0.51957  0.39192     C
C      0.50367  0.98043  0.89188     C
H      0.50455   0.7018  0.88671     H
H      0.50455   0.7982  0.38671     H
S      0.51881  0.53061  0.25517     S
S      0.51881  0.96939  0.75515     S
H      0.54271  0.69154  0.00466     H
H      0.54271  0.80846  0.50466     H
C       0.5617   0.5617  0.56792     C
C       0.5617   0.9383  0.06792     C
C      0.56187  0.58337  0.46042     C
C      0.56187  0.91663  0.96038     C
C      0.56674  0.69666  0.93246     C
C      0.56674  0.80334  0.43254     C
O      0.59242  0.71894  0.66371     O
O      0.59242  0.78106  0.16371     O
H      0.59979  0.14149   0.3363     H
C      0.60065  0.11287  0.26577     C
H      0.60123  0.17175   0.2158     H
H      0.60829  0.63316  0.91461     H
H      0.60829  0.86684  0.41461     H
C      0.63064  0.63064  0.63822     C
C      0.63064  0.86936  0.13822     C
H      0.63316  0.89171  0.41461     H
S      0.64942  0.68495  0.41699     S
S      0.64942  0.81505  0.91697     S
Cu     0.66054  0.66054  0.24569    Cu
Cu     0.66054  0.83946  0.74569    Cu
H      0.66456   0.0689  0.25598     H
H      0.69154  0.95729  0.50466     H
C      0.69674  0.93334  0.43254     C
H       0.7018  0.99545  0.38671     H
O      0.71894  0.59242  0.66371     O
O      0.71894  0.90758  0.16371     O
O      0.78106  0.59242  0.16371     O
O      0.78106  0.90758  0.66371     O
S      0.81507   0.8506  0.41699     S
H      0.82825  0.10123   0.2842     H
H      0.83544   0.0689  0.75598     H
H      0.83544   0.4311  0.25598     H
Cu     0.83946  0.66054  0.74569    Cu
Cu     0.83946  0.83946  0.24569    Cu
S      0.85058  0.68495  0.91697     S
H      0.85851  0.09979   0.1637     H
C      0.86936  0.63064  0.13822     C
C      0.86936  0.86936  0.63822     C
C      0.88727  0.10065  0.23437     C
H      0.89171  0.86684  0.91461     H
H      0.89877  0.17175   0.7158     H
H      0.89877  0.32825   0.2158     H
C      0.89935  0.38727  0.26577     C
C      0.89945  0.11287  0.76577     C
H      0.90021  0.14149   0.8363     H
H      0.90021  0.35851   0.3363     H
O      0.90758  0.71894  0.16371     O
O      0.90758  0.78106  0.66371     O
C      0.91677  0.93827  0.46042     C
H       0.9311  0.16456  0.24402     H
C      0.93326  0.80334  0.93246     C
C      0.93813  0.58337  0.96038     C
C       0.9383   0.5617  0.06792     C
C       0.9383   0.9383  0.56792     C
H      0.95729  0.80846  0.00466     H
S      0.96941  0.98121  0.25517     S
C      0.98057  0.99647  0.39192     C
S      0.98119  0.53061  0.75515     S
H      0.99545   0.7982  0.88671     H
C      0.99633  0.51957  0.89188     C
