data_I
_chemical_name_common  '/home/zhangsd/repos/MofS-CGCNN/CGCNN_MT/data/WS24v2_external_test/clean_cifs/val_11'
_cell_length_a 29.11630
_cell_length_b 16.35030
_cell_length_c 42.86260
_cell_angle_alpha 90.00000
_cell_angle_beta  96.74930
_cell_angle_gamma 90.00000
_space_group_name_H-M_alt      'P 1'


loop_
_space_group_symop_operation_xyz
  'x, y, z' 

loop_
_atom_site_label
_atom_site_fract_x
_atom_site_fract_y
_atom_site_fract_z
_atom_site_type_symbol
C      0.00484  0.45298  0.04782     C
C      0.00484  0.54718  0.54782     C
C      0.01022  0.12544   0.6898     C
C      0.01022  0.87464   0.1898     C
H       0.0105    0.129   0.6423     H
H       0.0105    0.871   0.1423     H
H       0.0143   0.0222   0.3043     H
H       0.0143   0.9778   0.8043     H
O      0.01582  0.38157  0.04763     O
O      0.01582  0.61857  0.54763     O
O      0.02712  0.05215  0.12822     O
O      0.02712  0.94795  0.62822     O
H       0.0272   0.1171    0.736     H
H       0.0272   0.8829    0.236     H
H       0.0278   0.3979     0.96     H
H       0.0278   0.6021     0.46     H
C      0.02922  0.12677  0.66143     C
C      0.02922  0.87337  0.16143     C
O      0.03154  0.49088  0.56442     O
O      0.03154  0.50928  0.06442     O
Zn     0.03591  0.06054  0.36047    Zn
Zn     0.03591  0.93948  0.86047    Zn
C      0.03664  0.48117  0.47103     C
C      0.03664  0.51897  0.97103     C
C      0.03922  0.12211  0.71697     C
C      0.03922  0.87791  0.21697     C
C      0.04029  0.12644  0.80952     C
C      0.04029  0.87364  0.30952     C
N      0.04258  0.02444  0.31469     N
N      0.04258  0.97564  0.81469     N
H       0.0456   0.1886   0.0414     H
H       0.0456   0.8114   0.5414     H
O      0.04594  0.06907  0.92402     O
O      0.04594  0.93107  0.42402     O
C      0.04774  0.43397  0.97165     C
C      0.04774  0.56617  0.47165     C
H       0.0484   0.2506    0.808     H
H       0.0484   0.7494    0.308     H
O      0.05324  0.10667  0.17484     O
O      0.05324  0.89347  0.67484     O
H       0.0559   0.3719   0.4881     H
H       0.0559   0.6281   0.9881     H
H       0.0577   0.0639   0.3059     H
H       0.0577   0.9361   0.8059     H
C      0.05824  0.07995  0.14844     C
C      0.05824  0.92015  0.64844     C
O      0.05884  0.17767  0.41524     O
O      0.05884  0.82247  0.91524     O
O      0.06362  0.17357  0.02922     O
O      0.06362  0.82657  0.52922     O
C      0.06394  0.42708  0.48792     C
C      0.06394  0.57308  0.98792     C
C      0.06414  0.20154  0.80661     C
C      0.06414  0.79854  0.30661     C
O      0.06492  0.16574  0.36397     O
O      0.06492  0.83434  0.86397     O
C      0.06529  0.05194  0.80929     C
C      0.06529  0.94814  0.30929     C
Zn     0.07043  0.34185  0.07311    Zn
Zn     0.07043  0.65817  0.57311    Zn
C      0.07135  0.20167  0.38994     C
C      0.07135  0.79847  0.88994     C
C      0.07342  0.07455  0.90282     C
C      0.07342  0.92555  0.40282     C
H        0.074   0.2095   0.9356     H
H        0.074   0.7905   0.4356     H
C      0.07582  0.12457  0.66258     C
C      0.07582  0.87557  0.16258     C
O      0.07807  0.01894  0.88185     O
O      0.07807  0.98114  0.38185     O
C      0.08652  0.12619  0.71644     C
C      0.08652  0.87399  0.21644     C
C      0.08754  0.40247  0.98915     C
C      0.08754  0.59767  0.48915     C
H       0.0878   0.0431    0.092     H
H       0.0878   0.9569    0.592     H
H       0.0887   0.1233   0.6437     H
H       0.0887   0.8767   0.1437     H
H       0.0919   0.3129   0.4359     H
H       0.0919   0.6871   0.9359     H
H        0.094   0.3467   0.9899     H
H        0.094   0.6533   0.4899     H
C      0.09712  0.21135  0.92233     C
C      0.09712  0.78875  0.42233     C
C      0.10122  0.20257  0.03689     C
C      0.10122  0.79757  0.53689     C
C      0.10275  0.27787  0.39464     C
C      0.10275  0.72227  0.89464     C
C      0.10296  0.14714   0.9036     C
C      0.10296  0.85294   0.4036     C
H       0.1052   0.1307   0.7355     H
H       0.1052   0.8693   0.2355     H
C      0.10602  0.45597  0.50592     C
C      0.10602  0.54417  0.00592     C
C      0.10615  0.12404  0.69105     C
C      0.10615  0.87604  0.19105     C
H       0.1067   0.1247   0.9854     H
H       0.1067   0.8753   0.4854     H
C      0.10674  0.07865  0.14014     C
C      0.10674  0.92145  0.64014     C
H       0.1075   0.3398    0.835     H
H       0.1075   0.6602    0.335     H
H       0.1092    0.483   0.0631     H
H       0.1092    0.517   0.5631     H
C      0.10927  0.32537  0.41974     C
C      0.10927  0.67477  0.91974     C
O      0.10931  0.26154  0.05675     O
O      0.10931  0.73854  0.55675     O
C      0.11043  0.20274  0.80171     C
C      0.11043  0.79734  0.30171     C
C      0.11211  0.05534  0.80508     C
C      0.11211  0.94474  0.30508     C
C      0.11294  0.05528  0.10674     C
C      0.11294  0.94488  0.60674     C
C      0.11712  0.46077  0.00556     C
C      0.11712  0.53937  0.50556     C
H         0.12   0.2723   0.3506     H
H         0.12   0.7277   0.8506     H
H        0.121   0.3245   0.9354     H
H        0.121   0.6755   0.4354     H
N      0.12312  0.43925  0.07217     N
N      0.12312  0.56085  0.57217     N
C      0.12432  0.30184  0.36922     C
C      0.12432  0.69824  0.86922     C
C      0.12522  0.28064  0.92219     C
C      0.12522  0.71944  0.42219     C
H       0.1255   0.4193   0.5176     H
H       0.1255   0.5807   0.0176     H
C      0.12946  0.34564  0.82105     C
C      0.12946  0.65444  0.32105     C
H       0.1329   0.4527   0.0919     H
H       0.1329   0.5473   0.5919     H
C      0.13381  0.12964  0.80105     C
C      0.13381  0.87044  0.30105     C
C      0.13556  0.28254  0.80036     C
C      0.13556  0.71754  0.30036     C
H       0.1363   0.0496   0.3508     H
H       0.1363   0.9504   0.8508     H
C      0.13664  0.13655  0.99427     C
C      0.13664  0.86355  0.49427     C
C      0.13667  0.38638  0.42414     C
C      0.13667  0.61378  0.92414     C
H       0.1369   0.4387   0.9099     H
H       0.1369   0.5613   0.4099     H
C       0.1391  0.14894  0.88363     C
C       0.1391  0.85114  0.38363     C
H       0.1395   0.1256   0.1758     H
H       0.1395   0.8744   0.6758     H
C      0.14044  0.02154   0.3055     C
C      0.14044  0.97854   0.8055     C
H       0.1407   0.4118   0.4436     H
H       0.1407   0.5882   0.9436     H
C      0.14322  0.17705  0.02153     C
C      0.14322  0.82305  0.52153     C
C      0.14324  0.10038  0.15694     C
C      0.14324  0.89978  0.65694     C
H       0.1444   0.1042   0.8712     H
H       0.1444   0.8958   0.3712     H
C      0.14952  0.06624  0.33314     C
C      0.14952  0.93384  0.83314     C
H       0.1516   0.4574   0.8364     H
H       0.1516   0.5426   0.3364     H
C      0.15234  0.36974  0.37162     C
C      0.15234  0.63034  0.87162     C
C      0.15519  0.41724  0.82156     C
C      0.15519  0.58284  0.32156     C
C      0.15723  0.12344  0.69146     C
C      0.15723  0.87664  0.19146     C
C      0.15784  0.05297  0.09934     C
C      0.15784  0.94717  0.59934     C
C      0.15853  0.28344  0.90262     C
C      0.15853  0.71664  0.40262     C
C      0.16044  0.41504  0.39982     C
C      0.16044  0.58504  0.89982     C
H       0.1608   0.2955   0.1067     H
H       0.1608   0.7045   0.6067     H
C      0.16142  0.43325  0.02386     C
C      0.16142  0.56685  0.52386     C
H       0.1625   0.0373   0.0791     H
H       0.1625   0.9627   0.5791     H
H       0.1627   0.0108   0.2625     H
H       0.1627   0.9892   0.7625     H
C      0.16302  0.42164  0.05655     C
C      0.16302  0.57844  0.55655     C
C      0.16434  0.04444  0.28012     C
C      0.16434  0.95564  0.78012     C
H       0.1648     0.13   0.7978     H
H       0.1648     0.87   0.2978     H
C      0.16594  0.21894  0.88332     C
C      0.16594  0.78114  0.38332     C
H       0.1663   0.3863   0.3543     H
H       0.1663   0.6137   0.8543     H
H       0.1668   0.2709   0.1595     H
H       0.1668   0.7291   0.6595     H
C      0.16682  0.43694  0.90445     C
C      0.16682  0.56314  0.40445     C
C      0.16974  0.29164  0.77997     C
C      0.16974  0.70844  0.27997     C
H       0.1705    0.082   0.9596     H
H       0.1705    0.918   0.4596     H
O      0.17328  0.11704  0.66518     O
O      0.17328  0.88304  0.16518     O
C      0.17512  0.11085  0.97839     C
C      0.17512  0.88925  0.47839     C
H       0.1757   0.2486   0.7668     H
H       0.1757   0.7514   0.2668     H
C      0.17822  0.13634  0.33506     C
C      0.17822  0.86374  0.83506     C
O      0.18048  0.12674  0.71762     O
O      0.18048  0.87334  0.21762     O
C      0.18212  0.32534  0.12003     C
C      0.18212  0.67474  0.62003     C
H        0.185   0.1645   0.3539     H
H        0.185   0.8355   0.8539     H
C      0.18532  0.31045  0.15157     C
C      0.18532  0.68965  0.65157     C
O      0.18622  0.31309  0.21822     O
O      0.18622  0.68709  0.71822     O
C      0.18632  0.36144  0.90004     C
C      0.18632  0.63864  0.40004     C
C       0.1864  0.42864   0.7997     C
C       0.1864  0.57144   0.2997     C
C      0.18752  0.19425  0.03507     C
C      0.18752  0.80585  0.53507     C
H       0.1889   0.2222     0.87     H
H       0.1889   0.7778     0.37     H
C      0.18894  0.09027  0.14992     C
C      0.18894  0.90987  0.64992     C
C      0.18962  0.11414  0.28065     C
C      0.18962  0.88594  0.78065     C
C      0.18984  0.48974  0.40116     C
C      0.18984  0.51034  0.90116     C
H       0.1917   0.2203   0.0545     H
H       0.1917   0.7797   0.5545     H
C      0.19422  0.36284  0.77921     C
C      0.19422  0.63724  0.27921     C
C      0.19442  0.07164  0.11932     C
C      0.19442  0.92844  0.61932     C
C      0.19613  0.16204   0.3077     C
C      0.19613  0.83804   0.8077     C
H       0.1973    0.422   0.9866     H
H       0.1973    0.578   0.4866     H
C      0.19982  0.41604  0.00828     C
C      0.19982  0.58404  0.50828     C
H       0.2026     0.13   0.2628     H
H       0.2026     0.87   0.7628     H
C      0.20452  0.39725  0.07326     C
C      0.20452  0.60285  0.57326     C
C      0.20848  0.38114  0.10731     C
C      0.20848  0.61894  0.60731     C
H       0.2102   0.0747   0.6004     H
H       0.2102   0.9253   0.1004     H
C      0.21392  0.49524  0.30049     C
C      0.21392  0.50484  0.80049     C
H       0.2141   0.0958   0.1653     H
H       0.2141   0.9042   0.6653     H
H       0.2162   0.3682   0.7652     H
H       0.2162   0.6318   0.2652     H
C      0.21744  0.35634  0.17196     C
C      0.21744  0.64374  0.67196     C
C      0.21912  0.13074  0.99216     C
C      0.21912  0.86934  0.49216     C
C      0.22012  0.34435  0.20677     C
C      0.22012  0.65575  0.70677     C
O      0.22182  0.45694  0.32526     O
O      0.22182  0.54314  0.82526     O
C      0.22372  0.23694  0.30926     C
C      0.22372  0.76314  0.80926     C
C      0.22492  0.17425  0.02088     C
C      0.22492  0.82585  0.52088     C
O      0.22972  0.47474  0.27559     O
O      0.22972  0.52534  0.77559     O
H       0.2306   0.1404   0.9315     H
H       0.2306   0.8596   0.4315     H
O      0.23132  0.27164  0.33571     O
O      0.23132  0.72844  0.83571     O
C      0.23262  0.36274  0.89303     C
C      0.23262  0.63734  0.39303     C
H        0.234   0.0572   0.8267     H
H        0.234   0.9428   0.3267     H
C      0.23454  0.49095  0.39417     C
C      0.23454  0.50915  0.89417     C
Zn     0.23473  0.12651   0.6541    Zn
Zn     0.23473   0.8735   0.1541    Zn
O      0.23762  0.26254  0.28418     O
O      0.23762  0.73754  0.78418     O
N      0.23892  0.08344  0.60946     N
N      0.23892  0.91664  0.10946     N
C      0.24052  0.42744   0.1273     C
C      0.24052  0.57264   0.6273     C
H       0.2413   0.0332    0.881     H
H       0.2413   0.9668    0.381     H
C      0.24202  0.38984  0.02452     C
C      0.24202  0.61024  0.52452     C
C      0.24252  0.37944  0.05707     C
C      0.24252  0.62064  0.55707     C
C      0.24332  0.06794   0.1096     C
C      0.24332  0.93214   0.6096     C
O      0.24425  0.13064  0.77731     O
O      0.24425  0.86944  0.27731     O
C      0.24467  0.41324  0.15994     C
C      0.24467  0.58684  0.65994     C
H       0.2457   0.3111   0.9701     H
H       0.2457   0.6889   0.4701     H
Zn     0.24607  0.13279  0.73248    Zn
Zn     0.24607  0.86721  0.23248    Zn
H       0.2471   0.3131   0.8901     H
H       0.2471   0.6869   0.3901     H
H       0.2492   0.3771   0.4014     H
H       0.2492   0.6229   0.9014     H
H       0.2508   0.1229   0.5986     H
H       0.2508   0.8771   0.0986     H
H       0.2529   0.1869   0.1099     H
H       0.2529   0.8131   0.6099     H
Zn     0.25393  0.36721  0.26752    Zn
Zn     0.25393  0.63279  0.76752    Zn
H       0.2543   0.1889   0.0299     H
H       0.2543   0.8111   0.5299     H
C      0.25533  0.08684  0.84006     C
C      0.25533  0.91324  0.34006     C
O      0.25575  0.36944  0.22271     O
O      0.25575  0.63064  0.72271     O
C      0.25672  0.43214   0.8904     C
C      0.25672  0.56794   0.3904     C
C      0.25752  0.12064  0.94293     C
C      0.25752  0.87944  0.44293     C
C      0.25802  0.11024  0.97548     C
C      0.25802  0.88984  0.47548     C
H       0.2587   0.4668    0.119     H
H       0.2587   0.5332    0.619     H
C      0.25952  0.07264   0.8727     C
C      0.25952  0.92744   0.3727     C
N      0.26112  0.41664  0.39054     N
N      0.26112  0.58344  0.89054     N
O      0.26242  0.23754  0.71582     O
O      0.26242  0.76254  0.21582     O
Zn     0.26527   0.3735   0.3459    Zn
Zn     0.26527  0.62652   0.8459    Zn
C      0.26554  0.00915  0.60583     C
C      0.26554  0.99095  0.10583     C
H        0.266   0.4428   0.1733     H
H        0.266   0.5572   0.6733     H
C      0.26742  0.13734  0.10697     C
C      0.26742  0.86274  0.60697     C
O      0.26872  0.22844  0.66429     O
O      0.26872  0.77164  0.16429     O
H       0.2694   0.3596   0.0685     H
H       0.2694   0.6404   0.5685     H
O      0.27032  0.02534  0.72441     O
O      0.27032  0.97474  0.22441     O
C      0.27512  0.32585  0.97912     C
C      0.27512  0.67425  0.47912     C
C      0.27632  0.26314  0.69074     C
C      0.27632  0.73694  0.19074     C
O      0.27818  0.04314  0.67476     O
O      0.27818  0.95694  0.17476     O
C      0.27992  0.15575  0.79323     C
C      0.27992  0.84435  0.29323     C
C      0.28092  0.36934  0.00784     C
C      0.28092  0.63074  0.50784     C
C      0.28256  0.14374  0.82804     C
C      0.28256  0.85634  0.32804     C
H       0.2838   0.1318   0.2348     H
H       0.2838   0.8682   0.7348     H
H       0.2859   0.4042   0.8347     H
H       0.2859   0.5958   0.3347     H
C      0.28608  0.00484  0.69951     C
C      0.28608  0.99524  0.19951     C
H       0.2898   0.4253   0.3996     H
H       0.2898   0.5747   0.8996     H
C      0.29152  0.11894  0.89269     C
C      0.29152  0.88114  0.39269     C
C      0.29552  0.10285  0.92674     C
C      0.29552  0.89725  0.42674     C
H       0.2974     0.37   0.7372     H
H       0.2974     0.63   0.2372     H
C      0.30022  0.08404  0.99172     C
C      0.30022  0.91604  0.49172     C
H       0.3027    0.078   0.0134     H
H       0.3027    0.922   0.5134     H
C      0.30387  0.33804   0.6923     C
C      0.30387  0.66204   0.1923     C
C      0.30562  0.42844  0.88072     C
C      0.30562  0.57164  0.38072     C
C      0.30582  0.13724  0.22079     C
C      0.30582  0.86284  0.72079     C
H       0.3083   0.2797   0.9455     H
H       0.3083   0.7203   0.4455     H
C      0.31024  0.01034  0.59884     C
C      0.31024  0.98974  0.09884     C
C      0.31042  0.38594  0.71935     C
C      0.31042  0.61414  0.21935     C
H       0.3111   0.2778     0.13     H
H       0.3111   0.7222     0.63     H
C      0.31114  0.40987  0.85012     C
C      0.31114  0.59027  0.35012     C
C      0.31252  0.30585  0.96493     C
C      0.31252  0.69425  0.46493     C
C       0.3136  0.07144   0.2003     C
C       0.3136  0.92864   0.7003     C
C      0.31372  0.13864  0.09996     C
C      0.31372  0.86144  0.59996     C
O      0.31382  0.18709  0.78178     O
O      0.31382  0.81309  0.28178     O
C      0.31472  0.18965  0.84843     C
C      0.31472  0.81045  0.34843     C
H        0.315   0.3355   0.6461     H
H        0.315   0.6645   0.1461     H
C      0.31792  0.17474  0.87997     C
C      0.31792  0.82534  0.37997     C
O      0.31952  0.37334  0.28238     O
O      0.31952  0.62674  0.78238     O
C      0.32182  0.36374  0.66494     C
C      0.32182  0.63634  0.16494     C
H       0.3243   0.2514   0.2332     H
H       0.3243   0.7486   0.7332     H
C      0.32492  0.38925  0.02161     C
C      0.32492  0.61085  0.52161     C
O      0.32672  0.38304  0.33482     O
O      0.32672  0.61704  0.83482     O
H       0.3295    0.418   0.0404     H
H       0.3295    0.582   0.5404     H
C      0.33026  0.20844  0.22003     C
C      0.33026  0.79164  0.72003     C
H       0.3332   0.2291   0.8405     H
H       0.3332   0.7709   0.3405     H
C      0.33322  0.06314  0.09555     C
C      0.33322  0.93694  0.59555     C
H       0.3337   0.1137   0.6457     H
H       0.3337   0.8863   0.1457     H
C      0.33406  0.28114  0.11668     C
C      0.33406  0.71894  0.61668     C
H       0.3352     0.37   0.2022     H
H       0.3352     0.63   0.7022     H
C      0.33574  0.45564  0.71988     C
C      0.33574  0.54444  0.21988     C
C      0.33702  0.07844  0.94345     C
C      0.33702  0.92164  0.44345     C
H       0.3373   0.4892   0.7375     H
H       0.3373   0.5108   0.2375     H
H       0.3375   0.4627   0.9209     H
H       0.3375   0.5373   0.4209     H
C      0.33862  0.06685  0.97614     C
C      0.33862  0.93325  0.47614     C
H       0.3392   0.2045   0.8933     H
H       0.3392   0.7955   0.3933     H
C      0.33964  0.08504  0.60022     C
C      0.33964  0.91504  0.10022     C
C      0.34147  0.21664  0.09738     C
C      0.34147  0.78344  0.59738     C
C      0.34224  0.44717  0.90074     C
C      0.34224  0.55297  0.40074     C
C      0.34277  0.37664  0.30854     C
C      0.34277  0.62344  0.80854     C
C      0.34481  0.08284  0.17844     C
C      0.34481  0.91724  0.67844     C
C      0.34774  0.13034  0.62842     C
C      0.34774  0.86974  0.12842     C
H       0.3484   0.0426   0.1636     H
H       0.3484   0.9574   0.6636     H
C      0.35052  0.43384  0.66686     C
C      0.35052  0.56624  0.16686     C
H       0.3556   0.3958   0.1288     H
H       0.3556   0.6042   0.6288     H
C      0.35682  0.32305  0.97847     C
C      0.35682  0.67705  0.47847     C
C      0.35684  0.39978  0.84314     C
C      0.35684  0.60038  0.34314     C
H       0.3593   0.0882   0.5564     H
H       0.3593   0.9118   0.0564     H
C      0.35956  0.47854   0.6945     C
C      0.35956  0.52154   0.1945     C
H       0.3605   0.3744   0.8242     H
H       0.3605   0.6256   0.3242     H
C       0.3609  0.35114  0.11637     C
C       0.3609  0.64894  0.61637     C
H       0.3631   0.0613   0.0901     H
H       0.3631   0.9387   0.5901     H
C      0.36344  0.36355  0.00573     C
C      0.36344  0.63655  0.50573     C
C      0.36347  0.11378  0.57594     C
C      0.36347  0.88638  0.07594     C
H       0.3637   0.4504   0.6492     H
H       0.3637   0.5496   0.1492     H
C      0.36444  0.21754  0.19964     C
C      0.36444  0.78254  0.69964     C
C      0.36619  0.37044  0.19895     C
C      0.36619  0.62964  0.69895     C
H       0.3671   0.0473   0.9081     H
H       0.3671   0.9527   0.4081     H
C      0.37054  0.15444  0.17895     C
C      0.37054  0.84564  0.67895     C
H       0.3745   0.0807   0.4824     H
H       0.3745   0.9193   0.9824     H
C      0.37482  0.21944  0.07781     C
C      0.37482  0.78064  0.57781     C
C      0.37572  0.19824  0.63082     C
C      0.37572  0.80184  0.13082     C
N      0.37692  0.06085  0.92783     N
N      0.37692  0.93925  0.42783     N
H        0.379   0.1755   0.0646     H
H        0.379   0.8245   0.5646     H
H         0.38   0.2277   0.6494     H
H         0.38   0.7723   0.1494     H
C      0.38292  0.03937  0.99444     C
C      0.38292  0.96077  0.49444     C
C      0.38714  0.44488  0.89334     C
C      0.38714  0.55528  0.39334     C
C      0.38789  0.44474  0.19492     C
C      0.38789  0.55534  0.69492     C
C      0.38957  0.29734  0.19829     C
C      0.38957  0.70274  0.69829     C
O      0.39069  0.23854  0.94325     O
O      0.39069  0.76154  0.44325     O
H       0.3908    0.017   0.9369     H
H       0.3908    0.983   0.4369     H
C      0.39087  0.17477  0.58034     C
C      0.39087  0.82537  0.08034     C
H       0.3925   0.1602    0.165     H
H       0.3925   0.8398    0.665     H
H       0.3933   0.3753   0.0146     H
H       0.3933   0.6247   0.5146     H
C      0.39334  0.42145  0.85994     C
C      0.39334  0.57865  0.35994     C
C      0.39385  0.37604  0.30895     C
C      0.39385  0.62404  0.80895     C
C      0.39402  0.04417  0.49412     C
C      0.39402  0.95597  0.99412     C
H       0.3948   0.3693   0.2645     H
H       0.3948   0.6307   0.7645     H
C      0.39704  0.35294   0.0964     C
C      0.39704  0.64714   0.5964     C
C      0.39735  0.22227  0.60544     C
C      0.39735  0.77787  0.10544     C
C      0.39882  0.29757  0.96311     C
C      0.39882  0.70257  0.46311     C
C      0.40292  0.28875  0.07767     C
C      0.40292  0.71135  0.57767     C
H        0.406   0.1533   0.0101     H
H        0.406   0.8467   0.5101     H
H       0.4081   0.1871   0.5641     H
H       0.4081   0.8129   0.0641     H
H       0.4113   0.3767   0.3563     H
H       0.4113   0.6233   0.8563     H
H       0.4122   0.4569    0.908     H
H       0.4122   0.5431    0.408     H
C      0.41254  0.09767  0.01085     C
C      0.41254  0.90247  0.51085     C
C      0.41352  0.37399  0.28356     C
C      0.41352  0.62619  0.78356     C
O      0.42193  0.48114  0.11815     O
O      0.42193  0.51894  0.61815     O
C      0.42422  0.37557  0.33742     C
C      0.42422  0.62457  0.83742     C
H        0.426   0.2905   0.0644     H
H        0.426   0.7095   0.5644     H
C      0.42662  0.42555  0.09722     C
C      0.42662  0.57455  0.59722     C
C      0.42875  0.29847  0.61014     C
C      0.42875  0.70167  0.11014     C
Zn     0.42957  0.15817  0.92689    Zn
Zn     0.42957  0.84185  0.42689    Zn
C      0.43471  0.44814  0.19071     C
C      0.43471  0.55194  0.69071     C
O      0.43512  0.33434  0.63603     O
O      0.43512  0.66574  0.13603     O
C      0.43586  0.29854  0.19339     C
C      0.43586  0.70154  0.69339     C
C      0.43614  0.07308  0.51212     C
C      0.43614  0.92708  0.01212     C
O      0.43642  0.32657  0.97082     O
O      0.43642  0.67357  0.47082     O
O      0.44124  0.32247  0.58484     O
O      0.44124  0.67767  0.08484     O
C      0.44184  0.42015  0.85164     C
C      0.44184  0.57995  0.35164     C
H       0.4423   0.4361   0.6941     H
H       0.4423   0.5639   0.1941     H
H       0.4441   0.1281   0.5119     H
H       0.4441   0.8719   0.0119     H
O      0.44684  0.39347  0.82524     O
O      0.44684  0.60667  0.32524     O
H       0.4516   0.2494    0.192     H
H       0.4516   0.7506    0.692     H
C      0.45234  0.06617  0.02835     C
C      0.45234  0.93397  0.52835     C
O      0.45414  0.43107  0.07602     O
O      0.45414  0.56907  0.57602     O
H       0.4544   0.3114   0.9586     H
H       0.4544   0.6886   0.4586     H
N      0.45742  0.47564  0.68531     N
N      0.45742  0.52444  0.18531     N
C      0.45971  0.37364  0.19048     C
C      0.45971  0.62644  0.69048     C
C      0.46082  0.37791  0.28303     C
C      0.46082  0.62211  0.78303     C
C      0.46344  0.01897  0.52897     C
C      0.46344  0.98117  0.02897     C
Zn     0.46409  0.43948  0.63953    Zn
Zn     0.46409  0.56054  0.13953    Zn
O      0.46854  0.00928  0.43562     O
O      0.46854  0.99088  0.93562     O
C      0.47082  0.37337  0.33857     C
C      0.47082  0.62677  0.83857     C
H       0.4722   0.1021     0.04     H
H       0.4722   0.8979     0.54     H
H       0.4728   0.3829    0.264     H
H       0.4728   0.6171    0.764     H
O      0.47292  0.44795  0.87182     O
O      0.47292  0.55215  0.37182     O
O      0.48422  0.11857  0.95237     O
O      0.48422  0.88157  0.45237     O
H       0.4857   0.4778   0.6957     H
H       0.4857   0.5222   0.1957     H
H       0.4895    0.371   0.3577     H
H       0.4895    0.629   0.8577     H
C      0.48978  0.37464   0.3102     C
C      0.48978  0.62544   0.8102     C
C      0.49524  0.04718  0.95222     C
C      0.49524  0.95298  0.45222     C
C      0.50484  0.04718  0.54782     C
C      0.50484  0.95298  0.04782     C
C      0.51022  0.37464   0.1898     C
C      0.51022  0.62544   0.6898     C
H       0.5105    0.371   0.1423     H
H       0.5105    0.629   0.6423     H
H       0.5143   0.4778   0.8043     H
H       0.5143   0.5222   0.3043     H
O      0.51582  0.11857  0.54763     O
O      0.51582  0.88157  0.04763     O
O      0.52712  0.44795  0.62822     O
O      0.52712  0.55215  0.12822     O
H       0.5272   0.3829    0.236     H
H       0.5272   0.6171    0.736     H
H       0.5278   0.1021     0.46     H
H       0.5278   0.8979     0.96     H
C      0.52922  0.37337  0.16143     C
C      0.52922  0.62677  0.66143     C
O      0.53154  0.00928  0.06442     O
O      0.53154  0.99088  0.56442     O
Zn     0.53591  0.43948  0.86047    Zn
Zn     0.53591  0.56054  0.36047    Zn
C      0.53664  0.01897  0.97103     C
C      0.53664  0.98117  0.47103     C
C      0.53922  0.37791  0.21697     C
C      0.53922  0.62211  0.71697     C
C      0.54029  0.37364  0.30952     C
C      0.54029  0.62644  0.80952     C
N      0.54258  0.47564  0.81469     N
N      0.54258  0.52444  0.31469     N
H       0.5456   0.3114   0.5414     H
H       0.5456   0.6886   0.0414     H
O      0.54594  0.43107  0.42402     O
O      0.54594  0.56907  0.92402     O
C      0.54774  0.06617  0.47165     C
C      0.54774  0.93397  0.97165     C
H       0.5484   0.2494    0.308     H
H       0.5484   0.7506    0.808     H
O      0.55324  0.39347  0.67484     O
O      0.55324  0.60667  0.17484     O
H       0.5559   0.1281   0.9881     H
H       0.5559   0.8719   0.4881     H
H       0.5577   0.4361   0.8059     H
H       0.5577   0.5639   0.3059     H
C      0.55824  0.42015  0.64844     C
C      0.55824  0.57995  0.14844     C
O      0.55884  0.32247  0.91524     O
O      0.55884  0.67767  0.41524     O
O      0.56362  0.32657  0.52922     O
O      0.56362  0.67357  0.02922     O
C      0.56394  0.07308  0.98792     C
C      0.56394  0.92708  0.48792     C
C      0.56414  0.29854  0.30661     C
C      0.56414  0.70154  0.80661     C
O      0.56492  0.33434  0.86397     O
O      0.56492  0.66574  0.36397     O
C      0.56529  0.44814  0.30929     C
C      0.56529  0.55194  0.80929     C
Zn     0.57043  0.15817  0.57311    Zn
Zn     0.57043  0.84185  0.07311    Zn
C      0.57135  0.29847  0.88994     C
C      0.57135  0.70167  0.38994     C
C      0.57342  0.42555  0.40282     C
C      0.57342  0.57455  0.90282     C
H        0.574   0.2905   0.4356     H
H        0.574   0.7095   0.9356     H
C      0.57582  0.37557  0.16258     C
C      0.57582  0.62457  0.66258     C
O      0.57807  0.48114  0.38185     O
O      0.57807  0.51894  0.88185     O
C      0.58652  0.37399  0.21644     C
C      0.58652  0.62619  0.71644     C
C      0.58754  0.09767  0.48915     C
C      0.58754  0.90247  0.98915     C
H       0.5878   0.4569    0.592     H
H       0.5878   0.5431    0.092     H
H       0.5887   0.3767   0.1437     H
H       0.5887   0.6233   0.6437     H
H       0.5919   0.1871   0.9359     H
H       0.5919   0.8129   0.4359     H
H        0.594   0.1533   0.4899     H
H        0.594   0.8467   0.9899     H
C      0.59712  0.28875  0.42233     C
C      0.59712  0.71135  0.92233     C
C      0.60122  0.29757  0.53689     C
C      0.60122  0.70257  0.03689     C
C      0.60275  0.22227  0.89464     C
C      0.60275  0.77787  0.39464     C
C      0.60296  0.35294   0.4036     C
C      0.60296  0.64714   0.9036     C
H       0.6052   0.3693   0.2355     H
H       0.6052   0.6307   0.7355     H
C      0.60602  0.04417  0.00592     C
C      0.60602  0.95597  0.50592     C
C      0.60615  0.37604  0.19105     C
C      0.60615  0.62404  0.69105     C
H       0.6067   0.3753   0.4854     H
H       0.6067   0.6247   0.9854     H
C      0.60674  0.42145  0.64014     C
C      0.60674  0.57865  0.14014     C
H       0.6075   0.1602    0.335     H
H       0.6075   0.8398    0.835     H
H       0.6092    0.017   0.5631     H
H       0.6092    0.983   0.0631     H
C      0.60927  0.17477  0.91974     C
C      0.60927  0.82537  0.41974     C
O      0.60931  0.23854  0.55675     O
O      0.60931  0.76154  0.05675     O
C      0.61043  0.29734  0.30171     C
C      0.61043  0.70274  0.80171     C
C      0.61211  0.44474  0.30508     C
C      0.61211  0.55534  0.80508     C
C      0.61294  0.44488  0.60674     C
C      0.61294  0.55528  0.10674     C
C      0.61712  0.03937  0.50556     C
C      0.61712  0.96077  0.00556     C
H         0.62   0.2277   0.8506     H
H         0.62   0.7723   0.3506     H
H        0.621   0.1755   0.4354     H
H        0.621   0.8245   0.9354     H
N      0.62312  0.06085  0.57217     N
N      0.62312  0.93925  0.07217     N
C      0.62432  0.19824  0.86922     C
C      0.62432  0.80184  0.36922     C
C      0.62522  0.21944  0.42219     C
C      0.62522  0.78064  0.92219     C
H       0.6255   0.0807   0.0176     H
H       0.6255   0.9193   0.5176     H
C      0.62946  0.15444  0.32105     C
C      0.62946  0.84564  0.82105     C
H       0.6329   0.0473   0.5919     H
H       0.6329   0.9527   0.0919     H
C      0.63381  0.37044  0.30105     C
C      0.63381  0.62964  0.80105     C
C      0.63556  0.21754  0.30036     C
C      0.63556  0.78254  0.80036     C
H       0.6363   0.4504   0.8508     H
H       0.6363   0.5496   0.3508     H
C      0.63664  0.36355  0.49427     C
C      0.63664  0.63655  0.99427     C
C      0.63667  0.11378  0.92414     C
C      0.63667  0.88638  0.42414     C
H       0.6369   0.0613   0.4099     H
H       0.6369   0.9387   0.9099     H
C       0.6391  0.35114  0.38363     C
C       0.6391  0.64894  0.88363     C
H       0.6395   0.3744   0.6758     H
H       0.6395   0.6256   0.1758     H
C      0.64044  0.47854   0.8055     C
C      0.64044  0.52154   0.3055     C
H       0.6407   0.0882   0.9436     H
H       0.6407   0.9118   0.4436     H
C      0.64322  0.32305  0.52153     C
C      0.64322  0.67705  0.02153     C
C      0.64324  0.39978  0.65694     C
C      0.64324  0.60038  0.15694     C
H       0.6444   0.3958   0.3712     H
H       0.6444   0.6042   0.8712     H
C      0.64952  0.43384  0.83314     C
C      0.64952  0.56624  0.33314     C
H       0.6516   0.0426   0.3364     H
H       0.6516   0.9574   0.8364     H
C      0.65234  0.13034  0.87162     C
C      0.65234  0.86974  0.37162     C
C      0.65519  0.08284  0.32156     C
C      0.65519  0.91724  0.82156     C
C      0.65723  0.37664  0.19146     C
C      0.65723  0.62344  0.69146     C
C      0.65784  0.44717  0.59934     C
C      0.65784  0.55297  0.09934     C
C      0.65853  0.21664  0.40262     C
C      0.65853  0.78344  0.90262     C
C      0.66044  0.08504  0.89982     C
C      0.66044  0.91504  0.39982     C
H       0.6608   0.2045   0.6067     H
H       0.6608   0.7955   0.1067     H
C      0.66142  0.06685  0.52386     C
C      0.66142  0.93325  0.02386     C
H       0.6625   0.4627   0.5791     H
H       0.6625   0.5373   0.0791     H
H       0.6627   0.4892   0.7625     H
H       0.6627   0.5108   0.2625     H
C      0.66302  0.07844  0.55655     C
C      0.66302  0.92164  0.05655     C
C      0.66434  0.45564  0.78012     C
C      0.66434  0.54444  0.28012     C
H       0.6648     0.37   0.2978     H
H       0.6648     0.63   0.7978     H
C      0.66594  0.28114  0.38332     C
C      0.66594  0.71894  0.88332     C
H       0.6663   0.1137   0.8543     H
H       0.6663   0.8863   0.3543     H
H       0.6668   0.2291   0.6595     H
H       0.6668   0.7709   0.1595     H
C      0.66682  0.06314  0.40445     C
C      0.66682  0.93694  0.90445     C
C      0.66974  0.20844  0.27997     C
C      0.66974  0.79164  0.77997     C
H       0.6705    0.418   0.4596     H
H       0.6705    0.582   0.9596     H
O      0.67328  0.38304  0.16518     O
O      0.67328  0.61704  0.66518     O
C      0.67512  0.38925  0.47839     C
C      0.67512  0.61085  0.97839     C
H       0.6757   0.2514   0.2668     H
H       0.6757   0.7486   0.7668     H
C      0.67822  0.36374  0.83506     C
C      0.67822  0.63634  0.33506     C
O      0.68048  0.37334  0.21762     O
O      0.68048  0.62674  0.71762     O
C      0.68212  0.17474  0.62003     C
C      0.68212  0.82534  0.12003     C
H        0.685   0.3355   0.8539     H
H        0.685   0.6645   0.3539     H
C      0.68532  0.18965  0.65157     C
C      0.68532  0.81045  0.15157     C
O      0.68622  0.18709  0.71822     O
O      0.68622  0.81309  0.21822     O
C      0.68632  0.13864  0.40004     C
C      0.68632  0.86144  0.90004     C
C       0.6864  0.07144   0.2997     C
C       0.6864  0.92864   0.7997     C
C      0.68752  0.30585  0.53507     C
C      0.68752  0.69425  0.03507     C
H       0.6889   0.2778     0.37     H
H       0.6889   0.7222     0.87     H
C      0.68894  0.40987  0.64992     C
C      0.68894  0.59027  0.14992     C
C      0.68962  0.38594  0.78065     C
C      0.68962  0.61414  0.28065     C
C      0.68984  0.01034  0.90116     C
C      0.68984  0.98974  0.40116     C
H       0.6917   0.2797   0.5545     H
H       0.6917   0.7203   0.0545     H
C      0.69422  0.13724  0.27921     C
C      0.69422  0.86284  0.77921     C
C      0.69442  0.42844  0.61932     C
C      0.69442  0.57164  0.11932     C
C      0.69613  0.33804   0.8077     C
C      0.69613  0.66204   0.3077     C
H       0.6973    0.078   0.4866     H
H       0.6973    0.922   0.9866     H
C      0.69982  0.08404  0.50828     C
C      0.69982  0.91604  0.00828     C
H       0.7026     0.37   0.7628     H
H       0.7026     0.63   0.2628     H
C      0.70452  0.10285  0.57326     C
C      0.70452  0.89725  0.07326     C
C      0.70848  0.11894  0.60731     C
C      0.70848  0.88114  0.10731     C
H       0.7102   0.4253   0.1004     H
H       0.7102   0.5747   0.6004     H
C      0.71392  0.00484  0.80049     C
C      0.71392  0.99524  0.30049     C
H       0.7141   0.4042   0.6653     H
H       0.7141   0.5958   0.1653     H
H       0.7162   0.1318   0.2652     H
H       0.7162   0.8682   0.7652     H
C      0.71744  0.14374  0.67196     C
C      0.71744  0.85634  0.17196     C
C      0.71912  0.36934  0.49216     C
C      0.71912  0.63074  0.99216     C
C      0.72012  0.15575  0.70677     C
C      0.72012  0.84435  0.20677     C
O      0.72182  0.04314  0.82526     O
O      0.72182  0.95694  0.32526     O
C      0.72372  0.26314  0.80926     C
C      0.72372  0.73694  0.30926     C
C      0.72492  0.32585  0.52088     C
C      0.72492  0.67425  0.02088     C
O      0.72972  0.02534  0.77559     O
O      0.72972  0.97474  0.27559     O
H       0.7306   0.3596   0.4315     H
H       0.7306   0.6404   0.9315     H
O      0.73132  0.22844  0.83571     O
O      0.73132  0.77164  0.33571     O
C      0.73262  0.13734  0.39303     C
C      0.73262  0.86274  0.89303     C
H        0.734   0.4428   0.3267     H
H        0.734   0.5572   0.8267     H
C      0.73454  0.00915  0.89417     C
C      0.73454  0.99095  0.39417     C
Zn     0.73473   0.3735   0.1541    Zn
Zn     0.73473  0.62652   0.6541    Zn
O      0.73762  0.23754  0.78418     O
O      0.73762  0.76254  0.28418     O
N      0.73892  0.41664  0.10946     N
N      0.73892  0.58344  0.60946     N
C      0.74052  0.07264   0.6273     C
C      0.74052  0.92744   0.1273     C
H       0.7413   0.4668    0.381     H
H       0.7413   0.5332    0.881     H
C      0.74202  0.11024  0.52452     C
C      0.74202  0.88984  0.02452     C
C      0.74252  0.12064  0.55707     C
C      0.74252  0.87944  0.05707     C
C      0.74332  0.43214   0.6096     C
C      0.74332  0.56794   0.1096     C
O      0.74425  0.36944  0.27731     O
O      0.74425  0.63064  0.77731     O
C      0.74467  0.08684  0.65994     C
C      0.74467  0.91324  0.15994     C
H       0.7457   0.1889   0.4701     H
H       0.7457   0.8111   0.9701     H
Zn     0.74607  0.36721  0.23248    Zn
Zn     0.74607  0.63279  0.73248    Zn
H       0.7471   0.1869   0.3901     H
H       0.7471   0.8131   0.8901     H
H       0.7492   0.1229   0.9014     H
H       0.7492   0.8771   0.4014     H
H       0.7508   0.3771   0.0986     H
H       0.7508   0.6229   0.5986     H
H       0.7529   0.3131   0.6099     H
H       0.7529   0.6869   0.1099     H
Zn     0.75393  0.13279  0.76752    Zn
Zn     0.75393  0.86721  0.26752    Zn
H       0.7543   0.3111   0.5299     H
H       0.7543   0.6889   0.0299     H
C      0.75533  0.41324  0.34006     C
C      0.75533  0.58684  0.84006     C
O      0.75575  0.13064  0.72271     O
O      0.75575  0.86944  0.22271     O
C      0.75672  0.06794   0.3904     C
C      0.75672  0.93214   0.8904     C
C      0.75752  0.37944  0.44293     C
C      0.75752  0.62064  0.94293     C
C      0.75802  0.38984  0.47548     C
C      0.75802  0.61024  0.97548     C
H       0.7587   0.0332    0.619     H
H       0.7587   0.9668    0.119     H
C      0.75952  0.42744   0.3727     C
C      0.75952  0.57264   0.8727     C
N      0.76112  0.08344  0.89054     N
N      0.76112  0.91664  0.39054     N
O      0.76242  0.26254  0.21582     O
O      0.76242  0.73754  0.71582     O
Zn     0.76527  0.12651   0.8459    Zn
Zn     0.76527   0.8735   0.3459    Zn
C      0.76554  0.49095  0.10583     C
C      0.76554  0.50915  0.60583     C
H        0.766   0.0572   0.6733     H
H        0.766   0.9428   0.1733     H
C      0.76742  0.36274  0.60697     C
C      0.76742  0.63734  0.10697     C
O      0.76872  0.27164  0.16429     O
O      0.76872  0.72844  0.66429     O
H       0.7694   0.1404   0.5685     H
H       0.7694   0.8596   0.0685     H
O      0.77032  0.47474  0.22441     O
O      0.77032  0.52534  0.72441     O
C      0.77512  0.17425  0.47912     C
C      0.77512  0.82585  0.97912     C
C      0.77632  0.23694  0.19074     C
C      0.77632  0.76314  0.69074     C
O      0.77818  0.45694  0.17476     O
O      0.77818  0.54314  0.67476     O
C      0.77992  0.34435  0.29323     C
C      0.77992  0.65575  0.79323     C
C      0.78092  0.13074  0.50784     C
C      0.78092  0.86934  0.00784     C
C      0.78256  0.35634  0.32804     C
C      0.78256  0.64374  0.82804     C
H       0.7838   0.3682   0.7348     H
H       0.7838   0.6318   0.2348     H
H       0.7859   0.0958   0.3347     H
H       0.7859   0.9042   0.8347     H
C      0.78608  0.49524  0.19951     C
C      0.78608  0.50484  0.69951     C
H       0.7898   0.0747   0.8996     H
H       0.7898   0.9253   0.3996     H
C      0.79152  0.38114  0.39269     C
C      0.79152  0.61894  0.89269     C
C      0.79552  0.39725  0.42674     C
C      0.79552  0.60285  0.92674     C
H       0.7974     0.13   0.2372     H
H       0.7974     0.87   0.7372     H
C      0.80022  0.41604  0.49172     C
C      0.80022  0.58404  0.99172     C
H       0.8027    0.422   0.5134     H
H       0.8027    0.578   0.0134     H
C      0.80387  0.16204   0.1923     C
C      0.80387  0.83804   0.6923     C
C      0.80562  0.07164  0.38072     C
C      0.80562  0.92844  0.88072     C
C      0.80582  0.36284  0.72079     C
C      0.80582  0.63724  0.22079     C
H       0.8083   0.2203   0.4455     H
H       0.8083   0.7797   0.9455     H
C      0.81024  0.48974  0.09884     C
C      0.81024  0.51034  0.59884     C
C      0.81042  0.11414  0.21935     C
C      0.81042  0.88594  0.71935     C
H       0.8111   0.2222     0.63     H
H       0.8111   0.7778     0.13     H
C      0.81114  0.09027  0.35012     C
C      0.81114  0.90987  0.85012     C
C      0.81252  0.19425  0.46493     C
C      0.81252  0.80585  0.96493     C
C       0.8136  0.42864   0.7003     C
C       0.8136  0.57144   0.2003     C
C      0.81372  0.36144  0.59996     C
C      0.81372  0.63864  0.09996     C
O      0.81382  0.31309  0.28178     O
O      0.81382  0.68709  0.78178     O
C      0.81472  0.31045  0.34843     C
C      0.81472  0.68965  0.84843     C
H        0.815   0.1645   0.1461     H
H        0.815   0.8355   0.6461     H
C      0.81792  0.32534  0.37997     C
C      0.81792  0.67474  0.87997     C
O      0.81952  0.12674  0.78238     O
O      0.81952  0.87334  0.28238     O
C      0.82182  0.13634  0.16494     C
C      0.82182  0.86374  0.66494     C
H       0.8243   0.2486   0.7332     H
H       0.8243   0.7514   0.2332     H
C      0.82492  0.11085  0.52161     C
C      0.82492  0.88925  0.02161     C
O      0.82672  0.11704  0.83482     O
O      0.82672  0.88304  0.33482     O
H       0.8295    0.082   0.5404     H
H       0.8295    0.918   0.0404     H
C      0.83026  0.29164  0.72003     C
C      0.83026  0.70844  0.22003     C
H       0.8332   0.2709   0.3405     H
H       0.8332   0.7291   0.8405     H
C      0.83322  0.43694  0.59555     C
C      0.83322  0.56314  0.09555     C
H       0.8337   0.3863   0.1457     H
H       0.8337   0.6137   0.6457     H
C      0.83406  0.21894  0.61668     C
C      0.83406  0.78114  0.11668     C
H       0.8352     0.13   0.7022     H
H       0.8352     0.87   0.2022     H
C      0.83574  0.04444  0.21988     C
C      0.83574  0.95564  0.71988     C
C      0.83702  0.42164  0.44345     C
C      0.83702  0.57844  0.94345     C
H       0.8373   0.0108   0.2375     H
H       0.8373   0.9892   0.7375     H
H       0.8375   0.0373   0.4209     H
H       0.8375   0.9627   0.9209     H
C      0.83862  0.43325  0.47614     C
C      0.83862  0.56685  0.97614     C
H       0.8392   0.2955   0.3933     H
H       0.8392   0.7045   0.8933     H
C      0.83964  0.41504  0.10022     C
C      0.83964  0.58504  0.60022     C
C      0.84147  0.28344  0.59738     C
C      0.84147  0.71664  0.09738     C
C      0.84224  0.05297  0.40074     C
C      0.84224  0.94717  0.90074     C
C      0.84277  0.12344  0.80854     C
C      0.84277  0.87664  0.30854     C
C      0.84481  0.41724  0.67844     C
C      0.84481  0.58284  0.17844     C
C      0.84774  0.36974  0.12842     C
C      0.84774  0.63034  0.62842     C
H       0.8484   0.4574   0.6636     H
H       0.8484   0.5426   0.1636     H
C      0.85052  0.06624  0.16686     C
C      0.85052  0.93384  0.66686     C
H       0.8556   0.1042   0.6288     H
H       0.8556   0.8958   0.1288     H
C      0.85682  0.17705  0.47847     C
C      0.85682  0.82305  0.97847     C
C      0.85684  0.10038  0.34314     C
C      0.85684  0.89978  0.84314     C
H       0.8593   0.4118   0.0564     H
H       0.8593   0.5882   0.5564     H
C      0.85956  0.02154   0.1945     C
C      0.85956  0.97854   0.6945     C
H       0.8605   0.1256   0.3242     H
H       0.8605   0.8744   0.8242     H
C       0.8609  0.14894  0.61637     C
C       0.8609  0.85114  0.11637     C
H       0.8631   0.4387   0.5901     H
H       0.8631   0.5613   0.0901     H
C      0.86344  0.13655  0.50573     C
C      0.86344  0.86355  0.00573     C
C      0.86347  0.38638  0.07594     C
C      0.86347  0.61378  0.57594     C
H       0.8637   0.0496   0.1492     H
H       0.8637   0.9504   0.6492     H
C      0.86444  0.28254  0.69964     C
C      0.86444  0.71754  0.19964     C
C      0.86619  0.12964  0.69895     C
C      0.86619  0.87044  0.19895     C
H       0.8671   0.4527   0.4081     H
H       0.8671   0.5473   0.9081     H
C      0.87054  0.34564  0.67895     C
C      0.87054  0.65444  0.17895     C
H       0.8745   0.4193   0.9824     H
H       0.8745   0.5807   0.4824     H
C      0.87482  0.28064  0.57781     C
C      0.87482  0.71944  0.07781     C
C      0.87572  0.30184  0.13082     C
C      0.87572  0.69824  0.63082     C
N      0.87692  0.43925  0.42783     N
N      0.87692  0.56085  0.92783     N
H        0.879   0.3245   0.5646     H
H        0.879   0.6755   0.0646     H
H         0.88   0.2723   0.1494     H
H         0.88   0.7277   0.6494     H
C      0.88292  0.46077  0.49444     C
C      0.88292  0.53937  0.99444     C
C      0.88714  0.05528  0.39334     C
C      0.88714  0.94488  0.89334     C
C      0.88789  0.05534  0.69492     C
C      0.88789  0.94474  0.19492     C
C      0.88957  0.20274  0.69829     C
C      0.88957  0.79734  0.19829     C
O      0.89069  0.26154  0.44325     O
O      0.89069  0.73854  0.94325     O
H       0.8908    0.483   0.4369     H
H       0.8908    0.517   0.9369     H
C      0.89087  0.32537  0.08034     C
C      0.89087  0.67477  0.58034     C
H       0.8925   0.3398    0.665     H
H       0.8925   0.6602    0.165     H
H       0.8933   0.1247   0.5146     H
H       0.8933   0.8753   0.0146     H
C      0.89334  0.07865  0.35994     C
C      0.89334  0.92145  0.85994     C
C      0.89385  0.12404  0.80895     C
C      0.89385  0.87604  0.30895     C
C      0.89402  0.45597  0.99412     C
C      0.89402  0.54417  0.49412     C
H       0.8948   0.1307   0.7645     H
H       0.8948   0.8693   0.2645     H
C      0.89704  0.14714   0.5964     C
C      0.89704  0.85294   0.0964     C
C      0.89735  0.27787  0.10544     C
C      0.89735  0.72227  0.60544     C
C      0.89882  0.20257  0.46311     C
C      0.89882  0.79757  0.96311     C
C      0.90292  0.21135  0.57767     C
C      0.90292  0.78875  0.07767     C
H        0.906   0.3467   0.5101     H
H        0.906   0.6533   0.0101     H
H       0.9081   0.3129   0.0641     H
H       0.9081   0.6871   0.5641     H
H       0.9113   0.1233   0.8563     H
H       0.9113   0.8767   0.3563     H
H       0.9122   0.0431    0.408     H
H       0.9122   0.9569    0.908     H
C      0.91254  0.40247  0.51085     C
C      0.91254  0.59767  0.01085     C
C      0.91352  0.12619  0.78356     C
C      0.91352  0.87399  0.28356     C
O      0.92193  0.01894  0.61815     O
O      0.92193  0.98114  0.11815     O
C      0.92422  0.12457  0.83742     C
C      0.92422  0.87557  0.33742     C
H        0.926   0.2095   0.5644     H
H        0.926   0.7905   0.0644     H
C      0.92662  0.07455  0.59722     C
C      0.92662  0.92555  0.09722     C
C      0.92875  0.20167  0.11014     C
C      0.92875  0.79847  0.61014     C
Zn     0.92957  0.34185  0.42689    Zn
Zn     0.92957  0.65817  0.92689    Zn
C      0.93471  0.05194  0.69071     C
C      0.93471  0.94814  0.19071     C
O      0.93512  0.16574  0.13603     O
O      0.93512  0.83434  0.63603     O
C      0.93586  0.20154  0.69339     C
C      0.93586  0.79854  0.19339     C
C      0.93614  0.42708  0.01212     C
C      0.93614  0.57308  0.51212     C
O      0.93642  0.17357  0.47082     O
O      0.93642  0.82657  0.97082     O
O      0.94124  0.17767  0.08484     O
O      0.94124  0.82247  0.58484     O
C      0.94184  0.07995  0.35164     C
C      0.94184  0.92015  0.85164     C
H       0.9423   0.0639   0.1941     H
H       0.9423   0.9361   0.6941     H
H       0.9441   0.3719   0.0119     H
H       0.9441   0.6281   0.5119     H
O      0.94684  0.10667  0.32524     O
O      0.94684  0.89347  0.82524     O
H       0.9516   0.2506    0.692     H
H       0.9516   0.7494    0.192     H
C      0.95234  0.43397  0.52835     C
C      0.95234  0.56617  0.02835     C
O      0.95414  0.06907  0.57602     O
O      0.95414  0.93107  0.07602     O
H       0.9544   0.1886   0.4586     H
H       0.9544   0.8114   0.9586     H
N      0.95742  0.02444  0.18531     N
N      0.95742  0.97564  0.68531     N
C      0.95971  0.12644  0.69048     C
C      0.95971  0.87364  0.19048     C
C      0.96082  0.12211  0.78303     C
C      0.96082  0.87791  0.28303     C
C      0.96344  0.48117  0.02897     C
C      0.96344  0.51897  0.52897     C
Zn     0.96409  0.06054  0.13953    Zn
Zn     0.96409  0.93948  0.63953    Zn
O      0.96854  0.49088  0.93562     O
O      0.96854  0.50928  0.43562     O
C      0.97082  0.12677  0.83857     C
C      0.97082  0.87337  0.33857     C
H       0.9722   0.3979     0.54     H
H       0.9722   0.6021     0.04     H
H       0.9728   0.1171    0.764     H
H       0.9728   0.8829    0.264     H
O      0.97292  0.05215  0.37182     O
O      0.97292  0.94795  0.87182     O
O      0.98422  0.38157  0.45237     O
O      0.98422  0.61857  0.95237     O
H       0.9857   0.0222   0.1957     H
H       0.9857   0.9778   0.6957     H
H       0.9895    0.129   0.8577     H
H       0.9895    0.871   0.3577     H
C      0.98978  0.12544   0.8102     C
C      0.98978  0.87464   0.3102     C
C      0.99524  0.45298  0.45222     C
C      0.99524  0.54718  0.95222     C
