data_I
_chemical_name_common  '/home/zhangsd/repos/MofS-CGCNN/CGCNN_MT/data/WS24v2_external_test/clean_cifs/val_3'
_cell_length_a 28.16930
_cell_length_b 28.16930
_cell_length_c 28.16930
_cell_angle_alpha 90.00000
_cell_angle_beta  90.00000
_cell_angle_gamma 90.00000
_space_group_name_H-M_alt      'P 1'


loop_
_space_group_symop_operation_xyz
  'x, y, z' 

loop_
_atom_site_label
_atom_site_fract_x
_atom_site_fract_y
_atom_site_fract_z
_atom_site_type_symbol
Zr         0.0      0.0  0.41305    Zr
Zr         0.0      0.0  0.58695    Zr
O          0.0  0.06284  0.45712     O
O          0.0  0.06284  0.54292     O
O          0.0  0.35812  0.44172     O
O          0.0  0.35812  0.55832     O
Zr         0.0  0.41305      0.0    Zr
Zr         0.0  0.43715  0.43715    Zr
Zr         0.0  0.43715  0.56285    Zr
O          0.0  0.44172  0.35812     O
O          0.0  0.44172  0.64192     O
O          0.0  0.45712  0.06284     O
O          0.0  0.45712  0.93716     O
O          0.0  0.54292  0.06284     O
O          0.0  0.54292  0.93716     O
O          0.0  0.55832  0.35812     O
O          0.0  0.55832  0.64192     O
Zr         0.0  0.56285  0.43715    Zr
Zr         0.0  0.56285  0.56285    Zr
Zr         0.0  0.58695      0.0    Zr
O          0.0  0.64192  0.44172     O
O          0.0  0.64192  0.55832     O
O          0.0  0.93716  0.45712     O
O          0.0  0.93716  0.54292     O
H      0.02472  0.49575  0.15174     H
H      0.03067  0.34563   0.5704     H
H      0.03067   0.4296  0.34563     H
H      0.03067   0.5704  0.65437     H
H      0.03067  0.65437   0.4296     H
O      0.04292  0.43724      0.5     O
O      0.04292      0.5  0.43724     O
O      0.04292      0.5  0.56284     O
O      0.04292  0.56284      0.5     O
O      0.04777  0.04777  0.37314     O
O      0.04777  0.04777  0.62686     O
O      0.04777  0.37314  0.04777     O
O      0.04777  0.37314  0.95223     O
O      0.04777  0.62686  0.04777     O
O      0.04777  0.62686  0.95223     O
O      0.04777  0.95223  0.37314     O
O      0.04777  0.95223  0.62686     O
O      0.05832  0.14192      0.5     O
O      0.05832      0.5  0.14192     O
O      0.05832      0.5  0.85812     O
O      0.05832  0.85812      0.5     O
H      0.06015  0.53314  0.84622     H
H      0.06015  0.84622  0.46686     H
O      0.06284      0.0  0.45712     O
O      0.06284      0.0  0.54292     O
O      0.06284  0.45712      0.0     O
O      0.06284  0.54292      0.0     O
Zr     0.06285  0.06285      0.5    Zr
Zr     0.06285      0.5  0.06285    Zr
Zr     0.06285      0.5  0.93715    Zr
Zr     0.06285  0.93715      0.5    Zr
H      0.06757  0.06757  0.29297     H
H      0.06757  0.06757  0.70703     H
H      0.06757  0.29297  0.06757     H
H      0.06757  0.29297  0.93243     H
H      0.06757  0.70703  0.06757     H
H      0.06757  0.70703  0.93243     H
H      0.06757  0.93243  0.29297     H
H      0.06757  0.93243  0.70703     H
H       0.0704  0.15437  0.53067     H
O      0.07072  0.41189  0.41189     O
O      0.07072  0.41189  0.58811     O
O      0.07072  0.58811  0.41189     O
O      0.07072  0.58811  0.58811     O
C      0.07772  0.07772  0.38642     C
C      0.07772  0.07772  0.61362     C
C      0.07772  0.38642  0.07772     C
C      0.07772  0.38642  0.92232     C
C      0.07772  0.61362  0.07772     C
C      0.07772  0.61362  0.92232     C
C      0.07772  0.92232  0.38642     C
C      0.07772  0.92232  0.61362     C
H      0.07775  0.15479  0.47358     H
H      0.07775  0.47358  0.15479     H
H      0.08301  0.23752  0.21281     H
H      0.08301  0.23752  0.78719     H
H      0.08301  0.76248  0.21281     H
H      0.08301  0.76248  0.78719     H
H      0.08502  0.48124  0.84479     H
H      0.08502  0.84479  0.51876     H
Zr     0.08695      0.5      0.5    Zr
O      0.08811  0.08811  0.42928     O
O      0.08811  0.08811  0.57072     O
O      0.08811  0.42928  0.08811     O
O      0.08811  0.42928  0.91189     O
O      0.08811  0.57072  0.08811     O
O      0.08811  0.57072  0.91189     O
O      0.08811  0.91189  0.42928     O
O      0.08811  0.91189  0.57072     O
C      0.09412  0.09412  0.30234     C
C      0.09412  0.09412  0.69774     C
C      0.09412  0.30234  0.09412     C
C      0.09412  0.30234  0.90592     C
C      0.09412  0.69774  0.09412     C
C      0.09412  0.69774  0.90592     C
C      0.09412  0.90592  0.30234     C
C      0.09412  0.90592  0.69774     C
H       0.1014  0.21864  0.27017     H
H       0.1014  0.21864  0.72983     H
H       0.1014  0.78136  0.27017     H
H       0.1014  0.78136  0.72983     H
H      0.10325  0.35448  0.35448     H
H      0.10325  0.35448  0.64552     H
H      0.10325  0.64552  0.35448     H
H      0.10325  0.64552  0.64552     H
C      0.10412  0.10412  0.34902     C
C      0.10412  0.10412  0.65102     C
C      0.10412  0.34902  0.10412     C
C      0.10412  0.34902  0.89592     C
C      0.10412  0.65102  0.10412     C
C      0.10412  0.65102  0.89592     C
C      0.10412  0.89592  0.34902     C
C      0.10412  0.89592  0.65102     C
H      0.11111  0.11111     0.23     H
H      0.11111  0.11111     0.77     H
H      0.11111     0.23  0.11111     H
H      0.11111     0.23  0.88889     H
H      0.11111     0.77  0.11111     H
H      0.11111     0.77  0.88889     H
H      0.11111  0.88889     0.23     H
H      0.11111  0.88889     0.77     H
C      0.11164  0.23882  0.23882     C
C      0.11164  0.23882  0.76122     C
C      0.11164  0.76122  0.23882     C
C      0.11164  0.76122  0.76122     C
C      0.11362  0.42232  0.42232     C
C      0.11362  0.42232  0.57772     C
C      0.11362  0.57772  0.42232     C
C      0.11362  0.57772  0.57772     C
H      0.11836  0.27555  0.24873     H
H      0.11836  0.27555  0.75127     H
H      0.11836  0.72445  0.24873     H
H      0.11836  0.72445  0.75127     H
C      0.11882  0.11882  0.26712     C
C      0.11882  0.11882  0.73292     C
C      0.11882  0.26712  0.11882     C
C      0.11882  0.26712  0.88122     C
C      0.11882  0.73292  0.11882     C
C      0.11882  0.73292  0.88122     C
C      0.11882  0.88122  0.26712     C
C      0.11882  0.88122  0.73292     C
O      0.12686  0.45223  0.45223     O
O      0.12686  0.45223  0.54777     O
O      0.12686  0.54777  0.45223     O
O      0.12686  0.54777  0.54777     O
C      0.13772  0.13772  0.35974     C
C      0.13772  0.13772  0.64034     C
C      0.13772  0.35974  0.13772     C
C      0.13772  0.35974  0.86232     C
C      0.13772  0.64034  0.13772     C
C      0.13772  0.64034  0.86232     C
C      0.13772  0.86232  0.35974     C
C      0.13772  0.86232  0.64034     C
C      0.14034  0.36232  0.36232     C
C      0.14034  0.36232  0.63772     C
C      0.14034  0.63772  0.36232     C
C      0.14034  0.63772  0.63772     C
O      0.14192  0.05832      0.5     O
O      0.14192      0.5  0.05832     O
O      0.14192      0.5  0.94172     O
O      0.14192  0.94172      0.5     O
H      0.14552  0.14552  0.39675     H
H      0.14552  0.14552  0.60325     H
H      0.14552  0.39675  0.14552     H
H      0.14552  0.39675  0.85448     H
H      0.14552  0.60325  0.14552     H
H      0.14552  0.60325  0.85448     H
H      0.14552  0.85448  0.39675     H
H      0.14552  0.85448  0.60325     H
C      0.15102  0.39592  0.39592     C
C      0.15102  0.39592  0.60412     C
C      0.15102  0.60412  0.39592     C
C      0.15102  0.60412  0.60412     C
H      0.15174  0.02472  0.49575     H
H       0.1519  0.51411  0.97242     H
H       0.1519  0.97242  0.48589     H
C      0.15216  0.15216  0.27762     C
C      0.15216  0.15216  0.72242     C
C      0.15216  0.27762  0.15216     C
C      0.15216  0.27762  0.84784     C
C      0.15216  0.72242  0.15216     C
C      0.15216  0.72242  0.84784     C
C      0.15216  0.84784  0.27762     C
C      0.15216  0.84784  0.72242     C
H      0.15379  0.46688  0.93955     H
H      0.15379  0.93955  0.53312     H
H      0.15437  0.53067   0.0704     H
H      0.15479  0.07775  0.47358     H
H      0.15479  0.47358  0.07775     H
C      0.15652  0.21734  0.21734     C
C      0.15652  0.21734  0.78266     C
C      0.15652  0.78266  0.21734     C
C      0.15652  0.78266  0.78266     C
C      0.16182  0.16182  0.32452     C
C      0.16182  0.16182  0.67552     C
C      0.16182  0.32452  0.16182     C
C      0.16182  0.32452  0.83822     C
C      0.16182  0.67552  0.16182     C
C      0.16182  0.67552  0.83822     C
C      0.16182  0.83822  0.32452     C
C      0.16182  0.83822  0.67552     C
H      0.16619  0.31167  0.31167     H
H      0.16619  0.31167  0.68833     H
H      0.16619  0.68833  0.31167     H
H      0.16619  0.68833  0.68833     H
C      0.17552  0.33822  0.33822     C
C      0.17552  0.33822  0.66182     C
C      0.17552  0.66182  0.33822     C
C      0.17552  0.66182  0.66182     C
C      0.17652  0.17652  0.23732     C
C      0.17652  0.17652  0.76272     C
C      0.17652  0.23732  0.17652     C
C      0.17652  0.23732  0.82348     C
C      0.17652  0.76272  0.17652     C
C      0.17652  0.76272  0.82348     C
C      0.17652  0.82348  0.23732     C
C      0.17652  0.82348  0.76272     C
H      0.18833  0.18833  0.33381     H
H      0.18833  0.18833  0.66619     H
H      0.18833  0.33381  0.18833     H
H      0.18833  0.33381  0.81167     H
H      0.18833  0.66619  0.18833     H
H      0.18833  0.66619  0.81167     H
H      0.18833  0.81167  0.33381     H
H      0.18833  0.81167  0.66619     H
C      0.19774  0.40592  0.40592     C
C      0.19774  0.40592  0.59412     C
C      0.19774  0.59412  0.40592     C
C      0.19774  0.59412  0.59412     C
H      0.20703  0.43243  0.43243     H
H      0.20703  0.43243  0.56757     H
H      0.20703  0.56757  0.43243     H
H      0.20703  0.56757  0.56757     H
H      0.21281  0.08301  0.23752     H
H      0.21281  0.08301  0.76248     H
H      0.21281  0.23752  0.08301     H
H      0.21281  0.23752  0.91699     H
H      0.21281  0.76248  0.08301     H
H      0.21281  0.76248  0.91699     H
H      0.21281  0.91699  0.23752     H
H      0.21281  0.91699  0.76248     H
C      0.21734  0.15652  0.21734     C
C      0.21734  0.15652  0.78266     C
C      0.21734  0.21734  0.15652     C
C      0.21734  0.21734  0.84352     C
C      0.21734  0.78266  0.15652     C
C      0.21734  0.78266  0.84352     C
C      0.21734  0.84352  0.21734     C
C      0.21734  0.84352  0.78266     C
C      0.22242  0.34784  0.34784     C
C      0.22242  0.34784  0.65216     C
C      0.22242  0.65216  0.34784     C
C      0.22242  0.65216  0.65216     C
H      0.22983  0.28136   0.3986     H
H      0.22983  0.28136   0.6014     H
H      0.22983   0.3986  0.28136     H
H      0.22983   0.3986  0.71864     H
H      0.22983   0.6014  0.28136     H
H      0.22983   0.6014  0.71864     H
H      0.22983  0.71864   0.3986     H
H      0.22983  0.71864   0.6014     H
H         0.23  0.11111  0.11111     H
H         0.23  0.11111  0.88889     H
H         0.23  0.88889  0.11111     H
H         0.23  0.88889  0.88889     H
C      0.23292  0.38122  0.38122     C
C      0.23292  0.38122  0.61882     C
C      0.23292  0.61882  0.38122     C
C      0.23292  0.61882  0.61882     C
C      0.23732  0.17652  0.17652     C
C      0.23732  0.17652  0.82348     C
C      0.23732  0.82348  0.17652     C
C      0.23732  0.82348  0.82348     C
C      0.23882  0.11164  0.23882     C
C      0.23882  0.11164  0.76122     C
C      0.23882  0.23882  0.11164     C
C      0.23882  0.23882  0.88844     C
C      0.23882  0.76122  0.11164     C
C      0.23882  0.76122  0.88844     C
C      0.23882  0.88844  0.23882     C
C      0.23882  0.88844  0.76122     C
H      0.24873  0.11836  0.27555     H
H      0.24873  0.11836  0.72445     H
H      0.24873  0.27555  0.11836     H
H      0.24873  0.27555  0.88164     H
H      0.24873  0.72445  0.11836     H
H      0.24873  0.72445  0.88164     H
H      0.24873  0.88164  0.27555     H
H      0.24873  0.88164  0.72445     H
H      0.25127  0.22445  0.38164     H
H      0.25127  0.22445  0.61836     H
H      0.25127  0.38164  0.22445     H
H      0.25127  0.38164  0.77555     H
H      0.25127  0.61836  0.22445     H
H      0.25127  0.61836  0.77555     H
H      0.25127  0.77555  0.38164     H
H      0.25127  0.77555  0.61836     H
C      0.26122  0.26122  0.38844     C
C      0.26122  0.26122  0.61164     C
C      0.26122  0.38844  0.26122     C
C      0.26122  0.38844  0.73882     C
C      0.26122  0.61164  0.26122     C
C      0.26122  0.61164  0.73882     C
C      0.26122  0.73882  0.38844     C
C      0.26122  0.73882  0.61164     C
C      0.26272  0.32348  0.32348     C
C      0.26272  0.32348  0.67652     C
C      0.26272  0.67652  0.32348     C
C      0.26272  0.67652  0.67652     C
C      0.26712  0.11882  0.11882     C
C      0.26712  0.11882  0.88122     C
C      0.26712  0.88122  0.11882     C
C      0.26712  0.88122  0.88122     C
H         0.27  0.38889  0.38889     H
H         0.27  0.38889  0.61111     H
H         0.27  0.61111  0.38889     H
H         0.27  0.61111  0.61111     H
H      0.27017   0.1014  0.21864     H
H      0.27017   0.1014  0.78136     H
H      0.27017  0.21864   0.1014     H
H      0.27017  0.21864   0.8986     H
H      0.27017  0.78136   0.1014     H
H      0.27017  0.78136   0.8986     H
H      0.27017   0.8986  0.21864     H
H      0.27017   0.8986  0.78136     H
C      0.27762  0.15216  0.15216     C
C      0.27762  0.15216  0.84784     C
C      0.27762  0.84784  0.15216     C
C      0.27762  0.84784  0.84784     C
C      0.28266  0.28266  0.34352     C
C      0.28266  0.28266  0.65652     C
C      0.28266  0.34352  0.28266     C
C      0.28266  0.34352  0.71734     C
C      0.28266  0.65652  0.28266     C
C      0.28266  0.65652  0.71734     C
C      0.28266  0.71734  0.34352     C
C      0.28266  0.71734  0.65652     C
H      0.28719  0.26248  0.41699     H
H      0.28719  0.26248  0.58301     H
H      0.28719  0.41699  0.26248     H
H      0.28719  0.41699  0.73752     H
H      0.28719  0.58301  0.26248     H
H      0.28719  0.58301  0.73752     H
H      0.28719  0.73752  0.41699     H
H      0.28719  0.73752  0.58301     H
H      0.29297  0.06757  0.06757     H
H      0.29297  0.06757  0.93243     H
H      0.29297  0.93243  0.06757     H
H      0.29297  0.93243  0.93243     H
C      0.30234  0.09412  0.09412     C
C      0.30234  0.09412  0.90592     C
C      0.30234  0.90592  0.09412     C
C      0.30234  0.90592  0.90592     C
H      0.31167  0.16619  0.31167     H
H      0.31167  0.16619  0.68833     H
H      0.31167  0.31167  0.16619     H
H      0.31167  0.31167  0.83381     H
H      0.31167  0.68833  0.16619     H
H      0.31167  0.68833  0.83381     H
H      0.31167  0.83381  0.31167     H
H      0.31167  0.83381  0.68833     H
C      0.32348  0.26272  0.32348     C
C      0.32348  0.26272  0.67652     C
C      0.32348  0.32348  0.26272     C
C      0.32348  0.32348  0.73732     C
C      0.32348  0.67652  0.26272     C
C      0.32348  0.67652  0.73732     C
C      0.32348  0.73732  0.32348     C
C      0.32348  0.73732  0.67652     C
C      0.32452  0.16182  0.16182     C
C      0.32452  0.16182  0.83822     C
C      0.32452  0.83822  0.16182     C
C      0.32452  0.83822  0.83822     C
H      0.33381  0.18833  0.18833     H
H      0.33381  0.18833  0.81167     H
H      0.33381  0.81167  0.18833     H
H      0.33381  0.81167  0.81167     H
C      0.33822  0.17552  0.33822     C
C      0.33822  0.17552  0.66182     C
C      0.33822  0.33822  0.17552     C
C      0.33822  0.33822  0.82452     C
C      0.33822  0.66182  0.17552     C
C      0.33822  0.66182  0.82452     C
C      0.33822  0.82452  0.33822     C
C      0.33822  0.82452  0.66182     C
C      0.34352  0.28266  0.28266     C
C      0.34352  0.28266  0.71734     C
C      0.34352  0.71734  0.28266     C
C      0.34352  0.71734  0.71734     C
H      0.34521  0.42224  0.97358     H
H      0.34521  0.57776  0.97358     H
H      0.34521  0.97358  0.42224     H
H      0.34521  0.97358  0.57776     H
H      0.34563  0.03067   0.4296     H
H      0.34563   0.5704  0.03067     H
C      0.34784  0.22242  0.34784     C
C      0.34784  0.22242  0.65216     C
C      0.34784  0.34784  0.22242     C
C      0.34784  0.34784  0.77762     C
C      0.34784  0.65216  0.22242     C
C      0.34784  0.65216  0.77762     C
C      0.34784  0.77762  0.34784     C
C      0.34784  0.77762  0.65216     C
H      0.34826  0.47528  0.99575     H
H      0.34826  0.99575  0.52472     H
C      0.34902  0.10412  0.10412     C
C      0.34902  0.10412  0.89592     C
C      0.34902  0.89592  0.10412     C
C      0.34902  0.89592  0.89592     C
H      0.35448  0.10325  0.35448     H
H      0.35448  0.10325  0.64552     H
H      0.35448  0.35448  0.10325     H
H      0.35448  0.35448  0.89675     H
H      0.35448  0.64552  0.10325     H
H      0.35448  0.64552  0.89675     H
H      0.35448  0.89675  0.35448     H
H      0.35448  0.89675  0.64552     H
O      0.35812      0.0  0.44172     O
O      0.35812      0.0  0.55832     O
O      0.35812  0.44172      0.0     O
O      0.35812  0.55832      0.0     O
C      0.35974  0.13772  0.13772     C
C      0.35974  0.13772  0.86232     C
C      0.35974  0.86232  0.13772     C
C      0.35974  0.86232  0.86232     C
C      0.36232  0.14034  0.36232     C
C      0.36232  0.14034  0.63772     C
C      0.36232  0.36232  0.14034     C
C      0.36232  0.36232  0.85974     C
C      0.36232  0.63772  0.14034     C
C      0.36232  0.63772  0.85974     C
C      0.36232  0.85974  0.36232     C
C      0.36232  0.85974  0.63772     C
O      0.37314  0.04777  0.04777     O
O      0.37314  0.04777  0.95223     O
O      0.37314  0.95223  0.04777     O
O      0.37314  0.95223  0.95223     O
C      0.38122  0.23292  0.38122     C
C      0.38122  0.23292  0.61882     C
C      0.38122  0.38122  0.23292     C
C      0.38122  0.38122  0.76712     C
C      0.38122  0.61882  0.23292     C
C      0.38122  0.61882  0.76712     C
C      0.38122  0.76712  0.38122     C
C      0.38122  0.76712  0.61882     C
H      0.38164  0.22445  0.25127     H
H      0.38164  0.22445  0.74873     H
H      0.38164  0.77555  0.25127     H
H      0.38164  0.77555  0.74873     H
C      0.38642  0.07772  0.07772     C
C      0.38642  0.07772  0.92232     C
C      0.38642  0.92232  0.07772     C
C      0.38642  0.92232  0.92232     C
C      0.38844  0.26122  0.26122     C
C      0.38844  0.26122  0.73882     C
C      0.38844  0.73882  0.26122     C
C      0.38844  0.73882  0.73882     C
H      0.38889     0.27  0.38889     H
H      0.38889     0.27  0.61111     H
H      0.38889  0.38889     0.27     H
H      0.38889  0.38889     0.73     H
H      0.38889  0.61111     0.27     H
H      0.38889  0.61111     0.73     H
H      0.38889     0.73  0.38889     H
H      0.38889     0.73  0.61111     H
C      0.39592  0.15102  0.39592     C
C      0.39592  0.15102  0.60412     C
C      0.39592  0.39592  0.15102     C
C      0.39592  0.39592  0.84902     C
C      0.39592  0.60412  0.15102     C
C      0.39592  0.60412  0.84902     C
C      0.39592  0.84902  0.39592     C
C      0.39592  0.84902  0.60412     C
H      0.39675  0.14552  0.14552     H
H      0.39675  0.14552  0.85448     H
H      0.39675  0.85448  0.14552     H
H      0.39675  0.85448  0.85448     H
H       0.3986  0.28136  0.22983     H
H       0.3986  0.28136  0.77017     H
H       0.3986  0.71864  0.22983     H
H       0.3986  0.71864  0.77017     H
C      0.40592  0.19774  0.40592     C
C      0.40592  0.19774  0.59412     C
C      0.40592  0.40592  0.19774     C
C      0.40592  0.40592  0.80234     C
C      0.40592  0.59412  0.19774     C
C      0.40592  0.59412  0.80234     C
C      0.40592  0.80234  0.40592     C
C      0.40592  0.80234  0.59412     C
O      0.41189  0.07072  0.41189     O
O      0.41189  0.07072  0.58811     O
O      0.41189  0.41189  0.07072     O
O      0.41189  0.41189  0.92928     O
O      0.41189  0.58811  0.07072     O
O      0.41189  0.58811  0.92928     O
O      0.41189  0.92928  0.41189     O
O      0.41189  0.92928  0.58811     O
Zr     0.41305      0.0      0.0    Zr
H      0.41699  0.26248  0.28719     H
H      0.41699  0.26248  0.71281     H
H      0.41699  0.73752  0.28719     H
H      0.41699  0.73752  0.71281     H
H      0.42224  0.34521  0.97358     H
H      0.42224  0.65479  0.97358     H
H      0.42224  0.97358  0.34521     H
H      0.42224  0.97358  0.65479     H
C      0.42232  0.11362  0.42232     C
C      0.42232  0.11362  0.57772     C
C      0.42232  0.42232  0.11362     C
C      0.42232  0.42232  0.88642     C
C      0.42232  0.57772  0.11362     C
C      0.42232  0.57772  0.88642     C
C      0.42232  0.88642  0.42232     C
C      0.42232  0.88642  0.57772     C
O      0.42928  0.08811  0.08811     O
O      0.42928  0.08811  0.91189     O
O      0.42928  0.91189  0.08811     O
O      0.42928  0.91189  0.91189     O
H       0.4296  0.03067  0.65437     H
H       0.4296  0.34563  0.03067     H
H      0.43243  0.20703  0.43243     H
H      0.43243  0.20703  0.56757     H
H      0.43243  0.43243  0.20703     H
H      0.43243  0.43243  0.79297     H
H      0.43243  0.56757  0.20703     H
H      0.43243  0.56757  0.79297     H
H      0.43243  0.79297  0.43243     H
H      0.43243  0.79297  0.56757     H
Zr     0.43715      0.0  0.43715    Zr
Zr     0.43715      0.0  0.56285    Zr
Zr     0.43715  0.43715      0.0    Zr
Zr     0.43715  0.56285      0.0    Zr
O      0.43724  0.04292      0.5     O
O      0.43724      0.5  0.04292     O
O      0.43724      0.5  0.95708     O
O      0.43724  0.95708      0.5     O
O      0.44172      0.0  0.35812     O
O      0.44172      0.0  0.64192     O
O      0.44172  0.35812      0.0     O
O      0.44172  0.64192      0.0     O
O      0.45223  0.12686  0.45223     O
O      0.45223  0.12686  0.54777     O
O      0.45223  0.45223  0.12686     O
O      0.45223  0.45223  0.87314     O
O      0.45223  0.54777  0.12686     O
O      0.45223  0.54777  0.87314     O
O      0.45223  0.87314  0.45223     O
O      0.45223  0.87314  0.54777     O
O      0.45712      0.0  0.06284     O
O      0.45712      0.0  0.93716     O
O      0.45712  0.06284      0.0     O
O      0.45712  0.93716      0.0     O
H      0.46686  0.06015  0.84622     H
H      0.46688  0.93955  0.15379     H
H      0.47122  0.92578  0.84541     H
H      0.47358  0.07775  0.15479     H
H      0.47358  0.15479  0.07775     H
H      0.47528  0.65174  0.99575     H
H      0.47528  0.99575  0.34826     H
H      0.48124  0.84479  0.08502     H
H      0.48589   0.1519  0.97242     H
H      0.49575  0.15174  0.02472     H
O          0.5  0.04292  0.43724     O
O          0.5  0.04292  0.56284     O
O          0.5  0.05832  0.14192     O
O          0.5  0.05832  0.85812     O
Zr         0.5  0.06285  0.06285    Zr
Zr         0.5  0.06285  0.93715    Zr
Zr         0.5  0.08695      0.5    Zr
O          0.5  0.14192  0.05832     O
O          0.5  0.14192  0.94172     O
O          0.5  0.43724  0.04292     O
O          0.5  0.43724  0.95708     O
Zr         0.5      0.5  0.08695    Zr
Zr         0.5      0.5  0.91305    Zr
O          0.5  0.56284  0.04292     O
O          0.5  0.56284  0.95708     O
H          0.5  0.84828  0.97555     H
O          0.5  0.85812  0.05832     O
O          0.5  0.85812  0.94172     O
Zr         0.5  0.91305      0.5    Zr
Zr         0.5  0.93715  0.06285    Zr
Zr         0.5  0.93715  0.93715    Zr
O          0.5  0.94172  0.14192     O
O          0.5  0.94172  0.85812     O
O          0.5  0.95708  0.43724     O
O          0.5  0.95708  0.56284     O
H          0.5  0.97555  0.84828     H
H      0.51411  0.97242   0.1519     H
H      0.51876  0.08502  0.84479     H
H      0.52472  0.34826  0.99575     H
H      0.52472  0.99575  0.65174     H
H      0.52878  0.84541  0.92578     H
H      0.53067   0.0704  0.15437     H
H      0.53312  0.15379  0.93955     H
H      0.53314  0.84622  0.06015     H
O      0.54292      0.0  0.06284     O
O      0.54292      0.0  0.93716     O
O      0.54292  0.06284      0.0     O
O      0.54292  0.93716      0.0     O
O      0.54777  0.12686  0.45223     O
O      0.54777  0.12686  0.54777     O
O      0.54777  0.45223  0.12686     O
O      0.54777  0.45223  0.87314     O
O      0.54777  0.54777  0.12686     O
O      0.54777  0.54777  0.87314     O
O      0.54777  0.87314  0.45223     O
O      0.54777  0.87314  0.54777     O
O      0.55832      0.0  0.35812     O
O      0.55832      0.0  0.64192     O
O      0.55832  0.35812      0.0     O
O      0.55832  0.64192      0.0     O
O      0.56284  0.04292      0.5     O
O      0.56284      0.5  0.04292     O
O      0.56284      0.5  0.95708     O
O      0.56284  0.95708      0.5     O
Zr     0.56285      0.0  0.43715    Zr
Zr     0.56285      0.0  0.56285    Zr
Zr     0.56285  0.43715      0.0    Zr
Zr     0.56285  0.56285      0.0    Zr
H      0.56757  0.20703  0.43243     H
H      0.56757  0.20703  0.56757     H
H      0.56757  0.43243  0.20703     H
H      0.56757  0.43243  0.79297     H
H      0.56757  0.56757  0.20703     H
H      0.56757  0.56757  0.79297     H
H      0.56757  0.79297  0.43243     H
H      0.56757  0.79297  0.56757     H
H       0.5704  0.03067  0.34563     H
H       0.5704  0.65437  0.03067     H
O      0.57072  0.08811  0.08811     O
O      0.57072  0.08811  0.91189     O
O      0.57072  0.91189  0.08811     O
O      0.57072  0.91189  0.91189     O
C      0.57772  0.11362  0.42232     C
C      0.57772  0.11362  0.57772     C
C      0.57772  0.42232  0.11362     C
C      0.57772  0.42232  0.88642     C
C      0.57772  0.57772  0.11362     C
C      0.57772  0.57772  0.88642     C
C      0.57772  0.88642  0.42232     C
C      0.57772  0.88642  0.57772     C
H      0.57776  0.34521  0.97358     H
H      0.57776  0.65479  0.97358     H
H      0.57776  0.97358  0.34521     H
H      0.57776  0.97358  0.65479     H
H      0.58301  0.26248  0.28719     H
H      0.58301  0.26248  0.71281     H
H      0.58301  0.73752  0.28719     H
H      0.58301  0.73752  0.71281     H
Zr     0.58695      0.0      0.0    Zr
O      0.58811  0.07072  0.41189     O
O      0.58811  0.07072  0.58811     O
O      0.58811  0.41189  0.07072     O
O      0.58811  0.41189  0.92928     O
O      0.58811  0.58811  0.07072     O
O      0.58811  0.58811  0.92928     O
O      0.58811  0.92928  0.41189     O
O      0.58811  0.92928  0.58811     O
C      0.59412  0.19774  0.40592     C
C      0.59412  0.19774  0.59412     C
C      0.59412  0.40592  0.19774     C
C      0.59412  0.40592  0.80234     C
C      0.59412  0.59412  0.19774     C
C      0.59412  0.59412  0.80234     C
C      0.59412  0.80234  0.40592     C
C      0.59412  0.80234  0.59412     C
H       0.6014  0.28136  0.22983     H
H       0.6014  0.28136  0.77017     H
H       0.6014  0.71864  0.22983     H
H       0.6014  0.71864  0.77017     H
H      0.60325  0.14552  0.14552     H
H      0.60325  0.14552  0.85448     H
H      0.60325  0.85448  0.14552     H
H      0.60325  0.85448  0.85448     H
C      0.60412  0.15102  0.39592     C
C      0.60412  0.15102  0.60412     C
C      0.60412  0.39592  0.15102     C
C      0.60412  0.39592  0.84902     C
C      0.60412  0.60412  0.15102     C
C      0.60412  0.60412  0.84902     C
C      0.60412  0.84902  0.39592     C
C      0.60412  0.84902  0.60412     C
H      0.61111     0.27  0.38889     H
H      0.61111     0.27  0.61111     H
H      0.61111  0.38889     0.27     H
H      0.61111  0.38889     0.73     H
H      0.61111  0.61111     0.27     H
H      0.61111  0.61111     0.73     H
H      0.61111     0.73  0.38889     H
H      0.61111     0.73  0.61111     H
C      0.61164  0.26122  0.26122     C
C      0.61164  0.26122  0.73882     C
C      0.61164  0.73882  0.26122     C
C      0.61164  0.73882  0.73882     C
C      0.61362  0.07772  0.07772     C
C      0.61362  0.07772  0.92232     C
C      0.61362  0.92232  0.07772     C
C      0.61362  0.92232  0.92232     C
H      0.61836  0.22445  0.25127     H
H      0.61836  0.22445  0.74873     H
H      0.61836  0.77555  0.25127     H
H      0.61836  0.77555  0.74873     H
C      0.61882  0.23292  0.38122     C
C      0.61882  0.23292  0.61882     C
C      0.61882  0.38122  0.23292     C
C      0.61882  0.38122  0.76712     C
C      0.61882  0.61882  0.23292     C
C      0.61882  0.61882  0.76712     C
C      0.61882  0.76712  0.38122     C
C      0.61882  0.76712  0.61882     C
O      0.62686  0.04777  0.04777     O
O      0.62686  0.04777  0.95223     O
O      0.62686  0.95223  0.04777     O
O      0.62686  0.95223  0.95223     O
C      0.63772  0.14034  0.36232     C
C      0.63772  0.14034  0.63772     C
C      0.63772  0.36232  0.14034     C
C      0.63772  0.36232  0.85974     C
C      0.63772  0.63772  0.14034     C
C      0.63772  0.63772  0.85974     C
C      0.63772  0.85974  0.36232     C
C      0.63772  0.85974  0.63772     C
C      0.64034  0.13772  0.13772     C
C      0.64034  0.13772  0.86232     C
C      0.64034  0.86232  0.13772     C
C      0.64034  0.86232  0.86232     C
O      0.64192      0.0  0.44172     O
O      0.64192      0.0  0.55832     O
O      0.64192  0.44172      0.0     O
O      0.64192  0.55832      0.0     O
H      0.64552  0.10325  0.35448     H
H      0.64552  0.10325  0.64552     H
H      0.64552  0.35448  0.10325     H
H      0.64552  0.35448  0.89675     H
H      0.64552  0.64552  0.10325     H
H      0.64552  0.64552  0.89675     H
H      0.64552  0.89675  0.35448     H
H      0.64552  0.89675  0.64552     H
C      0.65102  0.10412  0.10412     C
C      0.65102  0.10412  0.89592     C
C      0.65102  0.89592  0.10412     C
C      0.65102  0.89592  0.89592     C
H      0.65174  0.52472  0.99575     H
H      0.65174  0.99575  0.47528     H
C      0.65216  0.22242  0.34784     C
C      0.65216  0.22242  0.65216     C
C      0.65216  0.34784  0.22242     C
C      0.65216  0.34784  0.77762     C
C      0.65216  0.65216  0.22242     C
C      0.65216  0.65216  0.77762     C
C      0.65216  0.77762  0.34784     C
C      0.65216  0.77762  0.65216     C
H      0.65437  0.03067   0.5704     H
H      0.65437   0.4296  0.03067     H
H      0.65479  0.42224  0.97358     H
H      0.65479  0.57776  0.97358     H
H      0.65479  0.97358  0.42224     H
H      0.65479  0.97358  0.57776     H
C      0.65652  0.28266  0.28266     C
C      0.65652  0.28266  0.71734     C
C      0.65652  0.71734  0.28266     C
C      0.65652  0.71734  0.71734     C
C      0.66182  0.17552  0.33822     C
C      0.66182  0.17552  0.66182     C
C      0.66182  0.33822  0.17552     C
C      0.66182  0.33822  0.82452     C
C      0.66182  0.66182  0.17552     C
C      0.66182  0.66182  0.82452     C
C      0.66182  0.82452  0.33822     C
C      0.66182  0.82452  0.66182     C
H      0.66619  0.18833  0.18833     H
H      0.66619  0.18833  0.81167     H
H      0.66619  0.81167  0.18833     H
H      0.66619  0.81167  0.81167     H
C      0.67552  0.16182  0.16182     C
C      0.67552  0.16182  0.83822     C
C      0.67552  0.83822  0.16182     C
C      0.67552  0.83822  0.83822     C
C      0.67652  0.26272  0.32348     C
C      0.67652  0.26272  0.67652     C
C      0.67652  0.32348  0.26272     C
C      0.67652  0.32348  0.73732     C
C      0.67652  0.67652  0.26272     C
C      0.67652  0.67652  0.73732     C
C      0.67652  0.73732  0.32348     C
C      0.67652  0.73732  0.67652     C
H      0.68833  0.16619  0.31167     H
H      0.68833  0.16619  0.68833     H
H      0.68833  0.31167  0.16619     H
H      0.68833  0.31167  0.83381     H
H      0.68833  0.68833  0.16619     H
H      0.68833  0.68833  0.83381     H
H      0.68833  0.83381  0.31167     H
H      0.68833  0.83381  0.68833     H
C      0.69774  0.09412  0.09412     C
C      0.69774  0.09412  0.90592     C
C      0.69774  0.90592  0.09412     C
C      0.69774  0.90592  0.90592     C
H      0.70703  0.06757  0.06757     H
H      0.70703  0.06757  0.93243     H
H      0.70703  0.93243  0.06757     H
H      0.70703  0.93243  0.93243     H
H      0.71281  0.26248  0.41699     H
H      0.71281  0.26248  0.58301     H
H      0.71281  0.41699  0.26248     H
H      0.71281  0.41699  0.73752     H
H      0.71281  0.58301  0.26248     H
H      0.71281  0.58301  0.73752     H
H      0.71281  0.73752  0.41699     H
H      0.71281  0.73752  0.58301     H
C      0.71734  0.28266  0.34352     C
C      0.71734  0.28266  0.65652     C
C      0.71734  0.34352  0.28266     C
C      0.71734  0.34352  0.71734     C
C      0.71734  0.65652  0.28266     C
C      0.71734  0.65652  0.71734     C
C      0.71734  0.71734  0.34352     C
C      0.71734  0.71734  0.65652     C
C      0.72242  0.15216  0.15216     C
C      0.72242  0.15216  0.84784     C
C      0.72242  0.84784  0.15216     C
C      0.72242  0.84784  0.84784     C
H      0.72983   0.1014  0.21864     H
H      0.72983   0.1014  0.78136     H
H      0.72983  0.21864   0.1014     H
H      0.72983  0.21864   0.8986     H
H      0.72983  0.78136   0.1014     H
H      0.72983  0.78136   0.8986     H
H      0.72983   0.8986  0.21864     H
H      0.72983   0.8986  0.78136     H
H         0.73  0.38889  0.38889     H
H         0.73  0.38889  0.61111     H
H         0.73  0.61111  0.38889     H
H         0.73  0.61111  0.61111     H
C      0.73292  0.11882  0.11882     C
C      0.73292  0.11882  0.88122     C
C      0.73292  0.88122  0.11882     C
C      0.73292  0.88122  0.88122     C
C      0.73732  0.32348  0.32348     C
C      0.73732  0.32348  0.67652     C
C      0.73732  0.67652  0.32348     C
C      0.73732  0.67652  0.67652     C
C      0.73882  0.26122  0.38844     C
C      0.73882  0.26122  0.61164     C
C      0.73882  0.38844  0.26122     C
C      0.73882  0.38844  0.73882     C
C      0.73882  0.61164  0.26122     C
C      0.73882  0.61164  0.73882     C
C      0.73882  0.73882  0.38844     C
C      0.73882  0.73882  0.61164     C
H      0.74873  0.22445  0.38164     H
H      0.74873  0.22445  0.61836     H
H      0.74873  0.38164  0.22445     H
H      0.74873  0.38164  0.77555     H
H      0.74873  0.61836  0.22445     H
H      0.74873  0.61836  0.77555     H
H      0.74873  0.77555  0.38164     H
H      0.74873  0.77555  0.61836     H
H      0.75127  0.11836  0.27555     H
H      0.75127  0.11836  0.72445     H
H      0.75127  0.27555  0.11836     H
H      0.75127  0.27555  0.88164     H
H      0.75127  0.72445  0.11836     H
H      0.75127  0.72445  0.88164     H
H      0.75127  0.88164  0.27555     H
H      0.75127  0.88164  0.72445     H
C      0.76122  0.11164  0.23882     C
C      0.76122  0.11164  0.76122     C
C      0.76122  0.23882  0.11164     C
C      0.76122  0.23882  0.88844     C
C      0.76122  0.76122  0.11164     C
C      0.76122  0.76122  0.88844     C
C      0.76122  0.88844  0.23882     C
C      0.76122  0.88844  0.76122     C
C      0.76272  0.17652  0.17652     C
C      0.76272  0.17652  0.82348     C
C      0.76272  0.82348  0.17652     C
C      0.76272  0.82348  0.82348     C
C      0.76712  0.38122  0.38122     C
C      0.76712  0.38122  0.61882     C
C      0.76712  0.61882  0.38122     C
C      0.76712  0.61882  0.61882     C
H         0.77  0.11111  0.11111     H
H         0.77  0.11111  0.88889     H
H         0.77  0.88889  0.11111     H
H         0.77  0.88889  0.88889     H
H      0.77017  0.28136   0.3986     H
H      0.77017  0.28136   0.6014     H
H      0.77017   0.3986  0.28136     H
H      0.77017   0.3986  0.71864     H
H      0.77017   0.6014  0.28136     H
H      0.77017   0.6014  0.71864     H
H      0.77017  0.71864   0.3986     H
H      0.77017  0.71864   0.6014     H
C      0.77762  0.34784  0.34784     C
C      0.77762  0.34784  0.65216     C
C      0.77762  0.65216  0.34784     C
C      0.77762  0.65216  0.65216     C
C      0.78266  0.15652  0.21734     C
C      0.78266  0.15652  0.78266     C
C      0.78266  0.21734  0.15652     C
C      0.78266  0.21734  0.84352     C
C      0.78266  0.78266  0.15652     C
C      0.78266  0.78266  0.84352     C
C      0.78266  0.84352  0.21734     C
C      0.78266  0.84352  0.78266     C
H      0.78719  0.08301  0.23752     H
H      0.78719  0.08301  0.76248     H
H      0.78719  0.23752  0.08301     H
H      0.78719  0.23752  0.91699     H
H      0.78719  0.76248  0.08301     H
H      0.78719  0.76248  0.91699     H
H      0.78719  0.91699  0.23752     H
H      0.78719  0.91699  0.76248     H
H      0.79297  0.43243  0.43243     H
H      0.79297  0.43243  0.56757     H
H      0.79297  0.56757  0.43243     H
H      0.79297  0.56757  0.56757     H
C      0.80234  0.40592  0.40592     C
C      0.80234  0.40592  0.59412     C
C      0.80234  0.59412  0.40592     C
C      0.80234  0.59412  0.59412     C
H      0.81167  0.18833  0.33381     H
H      0.81167  0.18833  0.66619     H
H      0.81167  0.33381  0.18833     H
H      0.81167  0.33381  0.81167     H
H      0.81167  0.66619  0.18833     H
H      0.81167  0.66619  0.81167     H
H      0.81167  0.81167  0.33381     H
H      0.81167  0.81167  0.66619     H
C      0.82348  0.17652  0.23732     C
C      0.82348  0.17652  0.76272     C
C      0.82348  0.23732  0.17652     C
C      0.82348  0.23732  0.82348     C
C      0.82348  0.76272  0.17652     C
C      0.82348  0.76272  0.82348     C
C      0.82348  0.82348  0.23732     C
C      0.82348  0.82348  0.76272     C
C      0.82452  0.33822  0.33822     C
C      0.82452  0.33822  0.66182     C
C      0.82452  0.66182  0.33822     C
C      0.82452  0.66182  0.66182     C
H      0.83381  0.31167  0.31167     H
H      0.83381  0.31167  0.68833     H
H      0.83381  0.68833  0.31167     H
H      0.83381  0.68833  0.68833     H
C      0.83822  0.16182  0.32452     C
C      0.83822  0.16182  0.67552     C
C      0.83822  0.32452  0.16182     C
C      0.83822  0.32452  0.83822     C
C      0.83822  0.67552  0.16182     C
C      0.83822  0.67552  0.83822     C
C      0.83822  0.83822  0.32452     C
C      0.83822  0.83822  0.67552     C
C      0.84352  0.21734  0.21734     C
C      0.84352  0.21734  0.78266     C
C      0.84352  0.78266  0.21734     C
C      0.84352  0.78266  0.78266     C
H      0.84479  0.08502  0.48124     H
H      0.84479  0.48124  0.08502     H
H      0.84541  0.47122  0.92578     H
H      0.84541  0.92578  0.52878     H
H      0.84622  0.06015  0.53314     H
C      0.84784  0.15216  0.27762     C
C      0.84784  0.15216  0.72242     C
C      0.84784  0.27762  0.15216     C
C      0.84784  0.27762  0.84784     C
C      0.84784  0.72242  0.15216     C
C      0.84784  0.72242  0.84784     C
C      0.84784  0.84784  0.27762     C
C      0.84784  0.84784  0.72242     C
H      0.84809  0.48562  0.02771     H
H      0.84828      0.5  0.97555     H
H      0.84828  0.97555      0.5     H
C      0.84902  0.39592  0.39592     C
C      0.84902  0.39592  0.60412     C
C      0.84902  0.60412  0.39592     C
C      0.84902  0.60412  0.60412     C
H      0.85448  0.14552  0.39675     H
H      0.85448  0.14552  0.60325     H
H      0.85448  0.39675  0.14552     H
H      0.85448  0.39675  0.85448     H
H      0.85448  0.60325  0.14552     H
H      0.85448  0.60325  0.85448     H
H      0.85448  0.85448  0.39675     H
H      0.85448  0.85448  0.60325     H
O      0.85812  0.05832      0.5     O
O      0.85812      0.5  0.05832     O
O      0.85812      0.5  0.94172     O
O      0.85812  0.94172      0.5     O
C      0.85974  0.36232  0.36232     C
C      0.85974  0.36232  0.63772     C
C      0.85974  0.63772  0.36232     C
C      0.85974  0.63772  0.63772     C
C      0.86232  0.13772  0.35974     C
C      0.86232  0.13772  0.64034     C
C      0.86232  0.35974  0.13772     C
C      0.86232  0.35974  0.86232     C
C      0.86232  0.64034  0.13772     C
C      0.86232  0.64034  0.86232     C
C      0.86232  0.86232  0.35974     C
C      0.86232  0.86232  0.64034     C
O      0.87314  0.45223  0.45223     O
O      0.87314  0.45223  0.54777     O
O      0.87314  0.54777  0.45223     O
O      0.87314  0.54777  0.54777     O
C      0.88122  0.11882  0.26712     C
C      0.88122  0.11882  0.73292     C
C      0.88122  0.26712  0.11882     C
C      0.88122  0.26712  0.88122     C
C      0.88122  0.73292  0.11882     C
C      0.88122  0.73292  0.88122     C
C      0.88122  0.88122  0.26712     C
C      0.88122  0.88122  0.73292     C
H      0.88164  0.27555  0.24873     H
H      0.88164  0.27555  0.75127     H
H      0.88164  0.72445  0.24873     H
H      0.88164  0.72445  0.75127     H
C      0.88642  0.42232  0.42232     C
C      0.88642  0.42232  0.57772     C
C      0.88642  0.57772  0.42232     C
C      0.88642  0.57772  0.57772     C
C      0.88844  0.23882  0.23882     C
C      0.88844  0.23882  0.76122     C
C      0.88844  0.76122  0.23882     C
C      0.88844  0.76122  0.76122     C
H      0.88889  0.11111     0.23     H
H      0.88889  0.11111     0.77     H
H      0.88889     0.23  0.11111     H
H      0.88889     0.23  0.88889     H
H      0.88889     0.77  0.11111     H
H      0.88889     0.77  0.88889     H
H      0.88889  0.88889     0.23     H
H      0.88889  0.88889     0.77     H
C      0.89592  0.10412  0.34902     C
C      0.89592  0.10412  0.65102     C
C      0.89592  0.34902  0.10412     C
C      0.89592  0.34902  0.89592     C
C      0.89592  0.65102  0.10412     C
C      0.89592  0.65102  0.89592     C
C      0.89592  0.89592  0.34902     C
C      0.89592  0.89592  0.65102     C
H      0.89675  0.35448  0.35448     H
H      0.89675  0.35448  0.64552     H
H      0.89675  0.64552  0.35448     H
H      0.89675  0.64552  0.64552     H
H       0.8986  0.21864  0.27017     H
H       0.8986  0.21864  0.72983     H
H       0.8986  0.78136  0.27017     H
H       0.8986  0.78136  0.72983     H
C      0.90592  0.09412  0.30234     C
C      0.90592  0.09412  0.69774     C
C      0.90592  0.30234  0.09412     C
C      0.90592  0.30234  0.90592     C
C      0.90592  0.69774  0.09412     C
C      0.90592  0.69774  0.90592     C
C      0.90592  0.90592  0.30234     C
C      0.90592  0.90592  0.69774     C
O      0.91189  0.08811  0.42928     O
O      0.91189  0.08811  0.57072     O
O      0.91189  0.42928  0.08811     O
O      0.91189  0.42928  0.91189     O
O      0.91189  0.57072  0.08811     O
O      0.91189  0.57072  0.91189     O
O      0.91189  0.91189  0.42928     O
O      0.91189  0.91189  0.57072     O
Zr     0.91305      0.5      0.5    Zr
H      0.91516  0.51901   0.1552     H
H      0.91699  0.23752  0.21281     H
H      0.91699  0.23752  0.78719     H
H      0.91699  0.76248  0.21281     H
H      0.91699  0.76248  0.78719     H
C      0.92232  0.07772  0.38642     C
C      0.92232  0.07772  0.61362     C
C      0.92232  0.38642  0.07772     C
C      0.92232  0.38642  0.92232     C
C      0.92232  0.61362  0.07772     C
C      0.92232  0.61362  0.92232     C
C      0.92232  0.92232  0.38642     C
C      0.92232  0.92232  0.61362     C
H      0.92578  0.52878  0.84541     H
H      0.92578  0.84541  0.47122     H
O      0.92928  0.41189  0.41189     O
O      0.92928  0.41189  0.58811     O
O      0.92928  0.58811  0.41189     O
O      0.92928  0.58811  0.58811     O
H      0.93243  0.06757  0.29297     H
H      0.93243  0.06757  0.70703     H
H      0.93243  0.29297  0.06757     H
H      0.93243  0.29297  0.93243     H
H      0.93243  0.70703  0.06757     H
H      0.93243  0.70703  0.93243     H
H      0.93243  0.93243  0.29297     H
H      0.93243  0.93243  0.70703     H
Zr     0.93715  0.06285      0.5    Zr
Zr     0.93715      0.5  0.06285    Zr
Zr     0.93715      0.5  0.93715    Zr
Zr     0.93715  0.93715      0.5    Zr
O      0.93716      0.0  0.45712     O
O      0.93716      0.0  0.54292     O
O      0.93716  0.45712      0.0     O
O      0.93716  0.54292      0.0     O
H      0.93955  0.15379  0.46688     H
H      0.93955  0.46688  0.15379     H
O      0.94172  0.14192      0.5     O
O      0.94172      0.5  0.14192     O
O      0.94172      0.5  0.85812     O
O      0.94172  0.85812      0.5     O
O      0.95223  0.04777  0.37314     O
O      0.95223  0.04777  0.62686     O
O      0.95223  0.37314  0.04777     O
O      0.95223  0.37314  0.95223     O
O      0.95223  0.62686  0.04777     O
O      0.95223  0.62686  0.95223     O
O      0.95223  0.95223  0.37314     O
O      0.95223  0.95223  0.62686     O
O      0.95708  0.43724      0.5     O
O      0.95708      0.5  0.43724     O
O      0.95708      0.5  0.56284     O
O      0.95708  0.56284      0.5     O
H      0.97242   0.1519  0.51411     H
H      0.97358  0.34521  0.42224     H
H      0.97358  0.34521  0.57776     H
H      0.97358  0.42224  0.34521     H
H      0.97358  0.42224  0.65479     H
H      0.97358  0.57776  0.34521     H
H      0.97358  0.57776  0.65479     H
H      0.97358  0.65479  0.42224     H
H      0.97358  0.65479  0.57776     H
H      0.97555      0.5  0.84828     H
H      0.97555  0.84828      0.5     H
H      0.99575  0.34826  0.47528     H
H      0.99575  0.47528  0.65174     H
H      0.99575  0.52472  0.34826     H
H      0.99575  0.65174  0.52472     H
