data_I
_chemical_name_common  '/home/zhangsd/repos/MofS-CGCNN/CGCNN_MT/data/WS24v2_external_test/clean_cifs/val_46'
_cell_length_a 26.52550
_cell_length_b 25.58750
_cell_length_c 29.80160
_cell_angle_alpha 90.00000
_cell_angle_beta  107.42300
_cell_angle_gamma 90.00000
_space_group_name_H-M_alt      'P 1'


loop_
_space_group_symop_operation_xyz
  'x, y, z' 

loop_
_atom_site_label
_atom_site_fract_x
_atom_site_fract_y
_atom_site_fract_z
_atom_site_type_symbol
C      0.00342  0.11942  0.57067     C
C      0.00342  0.88062  0.07067     C
C      0.00515  0.11772  0.37777     C
C      0.00515  0.88232  0.87777     C
O      0.00527  0.25963  0.08701     O
O      0.00527  0.74037  0.58701     O
C      0.00662  0.28082  0.04935     C
C      0.00662  0.71922  0.54935     C
O      0.00688  0.16264  0.13868     O
O      0.00688  0.83736  0.63868     O
C      0.00802  0.06902  0.58543     C
C      0.00802  0.93102  0.08543     C
H      0.00871  0.04307  0.93569     H
H      0.00871  0.95693  0.43569     H
O      0.00972  0.09725  0.09029     O
O      0.00972  0.90275  0.59029     O
H      0.02171   0.3181   0.5377     H
H      0.02171   0.6819   0.0377     H
H      0.02608  0.19175  0.59399     H
H      0.02608  0.80825  0.09399     H
C      0.02932  0.15682  0.60282     C
C      0.02932  0.84322  0.10282     C
H      0.03028  0.12689  0.29676     H
H      0.03028  0.87311  0.79676     H
C      0.03102  0.13622   0.9773     C
C      0.03102  0.86382   0.4773     C
C      0.03632  0.05462  0.63007     C
C      0.03632  0.94542  0.13007     C
C      0.03706  0.08302  0.35622     C
C      0.03706  0.91702  0.85622     C
H      0.03731  0.01976  0.63911     H
H      0.03731  0.98025  0.13911     H
C      0.03992  0.31412  0.47732     C
C      0.03992  0.68592  0.97732     C
O      0.04167  0.18408   0.9823     O
O      0.04167  0.81592   0.4823     O
C      0.04182  0.09492  0.31089     C
C      0.04182  0.90512  0.81089     C
O      0.04358  0.27623  0.03058     O
O      0.04358  0.72377  0.53058     O
O      0.04434  0.25589  0.18578     O
O      0.04434  0.74411  0.68578     O
O      0.04636  0.10186  0.00808     O
O      0.04636  0.89814  0.50808     O
H      0.04641   0.0192  0.71872     H
H      0.04641  0.98079  0.21872     H
C      0.04642  0.32852  0.52301     C
C      0.04642  0.67152  0.02301     C
H      0.05699     0.03  0.40721     H
H      0.05699     0.97  0.90721     H
C      0.05816  0.03722  0.37695     C
C      0.05816  0.96282  0.87695     C
C      0.05942  0.14372  0.64725     C
C      0.05942  0.85632  0.14725     C
Fe     0.06143   0.2158   0.1307    Fe
Fe     0.06143   0.7842   0.6307    Fe
C      0.06297  0.09122   0.6613     C
C      0.06297  0.90882   0.1613     C
C      0.06358  0.05852  0.28839     C
C      0.06358  0.94152  0.78839     C
H      0.06606  0.06602  0.25859     H
H      0.06606  0.93398  0.75859     H
H      0.07045  0.03503  0.50205     H
H      0.07045  0.96497  0.00205     H
H      0.07267   0.3202  0.42648     H
H      0.07267   0.6798  0.92648     H
C      0.07561  0.03918  0.73455     C
C      0.07561  0.96082  0.23455     C
C      0.07662  0.33002  0.45742     C
C      0.07662  0.67002  0.95742     C
H      0.07728  0.16947  0.66796     H
H      0.07728  0.83053  0.16796     H
H      0.07875  0.09397  0.51677     H
H      0.07875  0.90603  0.01677     H
O      0.07926  0.18119  0.08186     O
O      0.07926  0.81881  0.58186     O
C      0.08092  0.00172   0.3549     C
C      0.08092  0.99832   0.8549     C
Fe      0.0813  0.10617  0.08137    Fe
Fe      0.0813  0.89383  0.58137    Fe
C      0.08192  0.01091  0.30878     C
C      0.08192  0.98909  0.80878     C
O      0.08592  0.02769  0.07567     O
O      0.08592  0.97231  0.57567     O
C      0.08872  0.35772  0.54712     C
C      0.08872  0.64232  0.04712     C
H      0.09281   0.3666  0.57828     H
H      0.09281   0.6334  0.07828     H
C      0.09303  0.07752  0.71165     C
C      0.09303  0.92252  0.21165     C
H       0.0958  0.02864  0.87047     H
H      0.09581  0.97136  0.37047     H
C      0.09627  0.06117  0.51665     C
C      0.09627  0.93897  0.01665     C
Fe     0.09745  0.21827  0.03433    Fe
Fe     0.09745  0.78173  0.53433    Fe
C      0.10181  0.02955  0.78251     C
C      0.10181  0.97045  0.28251     C
O      0.11586  0.17848  0.18187     O
O      0.11586  0.82152  0.68187     O
O      0.11719  0.09719  0.15419     O
O      0.11719  0.90281  0.65419     O
O      0.11753  0.27256  0.13766     O
O      0.11753  0.72744  0.63766     O
O      0.11761  0.26357  0.98346     O
O      0.11761  0.73643  0.48346     O
C      0.11942  0.35982  0.48027     C
C      0.11942  0.64022  0.98027     C
C      0.11964  0.00074  0.59144     C
C      0.11964  0.99934  0.09144     C
H      0.12122  0.06456   0.4993     H
H      0.12122  0.93544   0.9993     H
N      0.12284  0.04604  0.56344     N
N      0.12284  0.95404  0.06344     N
C      0.12612  0.37472  0.52542     C
C      0.12612  0.62532  0.02542     C
C      0.13092  0.13282  0.18607     C
C      0.13092  0.86722  0.68607     C
C      0.13882  0.10678  0.73509     C
C      0.13882  0.89322  0.23509     C
H      0.14376  0.36984  0.46501     H
H      0.14376  0.63016  0.96501     H
H      0.14391  0.00493  0.12074     H
H      0.14391  0.99506  0.62074     H
C      0.14491  0.06072  0.80548     C
C      0.14491  0.93928  0.30548     C
H      0.14891  0.10999  0.60017     H
H      0.14891  0.89001  0.10017     H
O      0.15073   0.1665  0.02077     O
O      0.15073   0.8335  0.52077     O
H      0.15135  0.13193  0.71858     H
H      0.15135  0.86807  0.21858     H
C      0.15382   0.2779  0.11948     C
C      0.15382   0.7221  0.61948     C
O       0.1549  0.25838   0.0807     O
O       0.1549  0.74162   0.5807     O
O      0.15553  0.10546  0.07526     O
O      0.15553  0.89454  0.57526     O
H      0.16072  0.05606  0.83758     H
H      0.16072  0.94395  0.33758     H
C      0.16325  0.07675  0.59554     C
C      0.16325  0.92335  0.09554     C
C      0.16497  0.09837  0.78216     C
C      0.16497  0.90163  0.28216     C
C      0.16502  0.12232  0.03879     C
C      0.16502  0.87772  0.53879     C
C      0.16632  0.11532  0.23389     C
C      0.16632  0.88472  0.73389     C
H      0.16939  0.03897  0.22203     H
H      0.16939  0.96103  0.72203     H
H      0.17224  0.18909  0.26082     H
H      0.17224  0.81091  0.76082     H
C      0.17332  0.40582  0.55353     C
C      0.17332  0.59422  0.05353     C
H      0.17574  0.05876  0.62501     H
H      0.17574  0.94124  0.12501     H
H      0.17701  0.45233  0.49894     H
H      0.17701  0.54766  0.99894     H
C      0.18022  0.06482  0.24483     C
C      0.18022  0.93522  0.74483     C
H      0.18206  0.31792  0.20473     H
H      0.18206  0.68208  0.70473     H
C      0.18212  0.15452  0.26802     C
C      0.18212  0.84552  0.76802     C
H      0.18695  0.12927  0.95861     H
H      0.18695  0.87073  0.45861     H
H      0.18798  0.63181  0.11529     H
H      0.18799  0.36819  0.61529     H
H      0.19198   0.0818  0.58259     H
H      0.19198   0.9182  0.08259     H
H      0.19209  0.14067  0.86723     H
H      0.19209  0.85933  0.36723     H
C      0.19342  0.44562  0.53064     C
C      0.19342  0.55442  0.03064     C
C      0.19422  0.08712  0.01625     C
C      0.19422  0.91292  0.51625     C
C      0.19902  0.09752  0.97292     C
C      0.19902  0.90252  0.47292     C
C      0.19972  0.39522   0.6001     C
C      0.19972  0.60482   0.1001     C
C      0.20111  0.30997  0.14551     C
C      0.20111  0.69003  0.64551     C
C      0.20712  0.32702  0.18993     C
C      0.20712  0.67302  0.68993     C
H      0.21021  0.01671  0.38204     H
H      0.21021  0.98329  0.88204     H
C      0.21052  0.05172  0.29017     C
C      0.21052  0.94832  0.79017     C
C      0.21163  0.12922  0.80724     C
C      0.21163  0.87078  0.30724     C
C      0.21324  0.14042   0.3131     C
C      0.21324  0.85962   0.8131     C
H      0.21401  0.03392   0.0682     H
H      0.21401  0.96608   0.5682     H
C      0.21552  0.04082  0.03802     C
C      0.21552  0.95922  0.53802     C
C      0.21782  0.14812  0.85271     C
C      0.21782  0.85192  0.35271     C
H      0.22021  0.01706  0.29718     H
H      0.22021  0.98294  0.79718     H
C      0.22202  0.06112  0.94929     C
C      0.22202  0.93892  0.44929     C
H      0.22372  0.06871  0.91925     H
H      0.22372  0.93129  0.41925     H
H      0.22502  0.16655   0.3355     H
H      0.22502  0.83345   0.8355     H
C      0.22682  0.08972  0.32559     C
C      0.22682  0.91032  0.82559     C
H      0.23444  0.31109  0.09298     H
H      0.23444  0.68891  0.59298     H
C      0.23612  0.47412  0.55426     C
C      0.23612  0.52592  0.05426     C
C      0.23852  0.32242  0.12351     C
C      0.23852  0.67762  0.62351     C
C      0.23862  0.00482  0.01632     C
C      0.23862  0.99522  0.51632     C
C      0.23922  0.03662  0.39844     C
C      0.23922  0.96342  0.89844     C
C      0.24222  0.01392  0.97049     C
C      0.24222  0.98612  0.47049     C
C      0.24342  0.42422  0.62456     C
C      0.24342  0.57582  0.12456     C
H      0.24778  0.13048  0.75639     H
H      0.24778  0.86952  0.25639     H
H      0.24794  0.47396   0.4681     H
H      0.24794  0.52604   0.9681     H
C      0.24952  0.35762   0.2135     C
C      0.24952  0.64242   0.7135     C
C      0.25052  0.14242   0.7865     C
C      0.25052  0.85762   0.2865     C
H      0.25206  0.02604   0.5319     H
H      0.25206  0.97396   0.0319     H
H      0.25222  0.36952  0.24361     H
H      0.25222  0.63048  0.74361     H
C      0.25662  0.07582  0.37544     C
C      0.25662  0.92422  0.87544     C
C      0.25782  0.48612  0.02951     C
C      0.25782  0.51392  0.52951     C
C      0.26082  0.46342  0.60156     C
C      0.26082  0.53662  0.10156     C
C      0.26142  0.49522  0.98368     C
C      0.26142  0.50482  0.48368     C
C      0.26152  0.17762  0.87649     C
C      0.26152  0.82242  0.37649     C
C      0.26392  0.02592  0.44574     C
C      0.26392  0.97412  0.94574     C
H      0.26556  0.18891  0.90702     H
H      0.26556  0.81109  0.40703     H
C      0.27322  0.41032  0.67441     C
C      0.27322  0.58972  0.17441     C
H      0.27498  0.33345   0.6645     H
H      0.27498  0.66655   0.1645     H
H      0.27628  0.43129  0.08075     H
H      0.27628  0.56871  0.58075     H
C      0.27802  0.43892  0.05071     C
C      0.27802  0.56112  0.55071     C
H      0.27979  0.48294  0.70282     H
H      0.27979  0.51706  0.20282     H
C      0.28222  0.35192  0.14729     C
C      0.28222  0.64812  0.64729     C
C      0.28452  0.45922  0.96202     C
C      0.28452  0.54082  0.46202     C
H      0.28599  0.46608   0.9318     H
H      0.28599  0.53392   0.4318     H
C      0.28684  0.35962   0.6869     C
C      0.28684  0.64042   0.1869     C
C      0.28837  0.37078  0.19276     C
C      0.28837  0.62922  0.69276     C
C      0.28952  0.44832  0.70983     C
C      0.28952  0.55172  0.20983     C
H      0.28979  0.48329  0.61796     H
H      0.28979  0.51671  0.11796     H
C      0.29292  0.17302  0.81007     C
C      0.29292  0.82702  0.31007     C
C      0.29889  0.19003  0.85449     C
C      0.29889  0.80997  0.35449     C
C      0.30032  0.10482   0.3999     C
C      0.30032  0.89522   0.8999     C
C      0.30102  0.40252  0.02712     C
C      0.30102  0.59752  0.52712     C
C      0.30582  0.41292  0.98375     C
C      0.30582  0.58712  0.48375     C
C      0.30662  0.05442  0.46936     C
C      0.30662  0.94562  0.96936     C
H      0.30791  0.35933  0.13277     H
H      0.30791  0.64067  0.63277     H
H      0.30802   0.4182  0.41741     H
H      0.30802   0.5818  0.91741     H
H      0.31201  0.13181  0.38471     H
H      0.31201  0.86819  0.88471     H
H      0.31305  0.37073  0.04139     H
H      0.31305  0.62927  0.54139     H
C      0.31792  0.34552  0.73198     C
C      0.31792  0.65452  0.23198     C
H      0.31794  0.18208  0.79527     H
H      0.31794  0.81792  0.29527     H
C      0.31982  0.43522  0.75517     C
C      0.31982  0.56482  0.25517     C
H      0.32299  0.04766  0.50106     H
H      0.32299  0.95234  0.00106     H
H      0.32426  0.44124  0.37499     H
H      0.32426  0.55876  0.87499     H
C      0.32672  0.09422  0.44647     C
C      0.32672  0.90582  0.94647     C
H      0.32776  0.31091  0.73918     H
H      0.32776  0.68909  0.23918     H
H      0.33061  0.46103  0.77797     H
H      0.33061  0.53897  0.27797     H
C      0.33372  0.38472  0.76611     C
C      0.33372  0.61532  0.26611     C
C      0.33502  0.37772  0.96121     C
C      0.33502  0.62232  0.46121     C
C      0.33503  0.40163  0.21784     C
C      0.33503  0.59837  0.71784     C
C      0.33685  0.42335  0.40454     C
C      0.33685  0.57675  0.90454     C
H      0.33928  0.44395  0.16242     H
H      0.33928  0.55605  0.66242     H
O      0.34447  0.39454  0.92474     O
O      0.34447  0.60546  0.42474     O
O       0.3451  0.24162   0.9193     O
O       0.3451  0.75838   0.4193     O
C      0.34622   0.2221  0.88052     C
C      0.34622   0.7779  0.38052     C
H      0.34865  0.36807  0.28142     H
H      0.34865  0.63193  0.78142     H
O      0.34927   0.3335  0.97923     O
O      0.34927   0.6665  0.47923     O
H      0.35109  0.39001  0.39983     H
H      0.35109  0.60999  0.89983     H
C      0.35509  0.43928  0.19452     C
C      0.35509  0.56072  0.69452     C
H      0.35609  0.49506  0.87926     H
H      0.35609  0.50494  0.37926     H
H      0.35624  0.13016  0.53499     H
H      0.35624  0.86984  0.03499     H
C      0.36122  0.39322  0.26491     C
C      0.36122  0.60678  0.76491     C
C      0.36912  0.36722  0.81393     C
C      0.36912  0.63282  0.31393     C
C      0.37392  0.12532  0.47462     C
C      0.37392  0.87472  0.97462     C
N      0.37724  0.45404  0.43664     N
N      0.37724  0.54604  0.93664     N
H      0.37878  0.43544   0.5007     H
H      0.37878  0.56456   0.0007     H
C      0.38044  0.49934  0.40864     C
C      0.38044  0.50074  0.90864     C
C      0.38062  0.14022  0.51973     C
C      0.38062  0.85982  0.01973     C
O      0.38239  0.23643  0.01654     O
O      0.38239  0.76357  0.51654     O
O      0.38247  0.22744  0.86234     O
O      0.38247  0.77256  0.36234     O
O      0.38281  0.40281  0.84581     O
O      0.38281  0.59719  0.34581     O
O      0.38414  0.32152  0.81813     O
O      0.38414  0.67848  0.31813     O
C      0.39819  0.47045  0.21749     C
C      0.39819  0.52955  0.71749     C
Fe     0.40255  0.28173  0.96567    Fe
Fe     0.40255  0.71827  0.46567    Fe
C      0.40387  0.43897  0.48345     C
C      0.40387  0.56117  0.98345     C
H       0.4042  0.47136  0.12953     H
H       0.4042  0.52864  0.62953     H
C      0.40697  0.42252  0.28835     C
C      0.40697  0.57752  0.78835     C
H      0.40719   0.1334  0.42172     H
H      0.40719   0.8666  0.92172     H
C      0.41132  0.14232  0.45292     C
C      0.41132  0.85772  0.95292     C
O      0.41412  0.47231  0.92433     O
O      0.41412  0.52769  0.42433     O
C      0.41808  0.48909  0.69122     C
C      0.41808  0.51091  0.19122     C
Fe      0.4187  0.39383  0.91863    Fe
Fe      0.4187  0.60617  0.41863    Fe
C      0.41912  0.49832   0.6451     C
C      0.41912  0.50172   0.1451     C
O      0.42074  0.31881  0.91816     O
O      0.42074  0.68119  0.41816     O
H      0.42125  0.40603  0.48323     H
H      0.42125  0.59397  0.98323     H
H      0.42272  0.33053  0.33204     H
H      0.42272  0.66947  0.83204     H
C      0.42342  0.17002  0.54262     C
C      0.42342  0.83002  0.04262     C
C      0.42439  0.46082  0.26545     C
C      0.42439  0.53918  0.76545     C
H      0.42733   0.1798  0.57352     H
H      0.42733   0.8202  0.07352     H
H      0.42955  0.46497  0.49795     H
H      0.42955  0.53503  0.99795     H
H      0.43394  0.43398  0.74141     H
H      0.43394  0.56602  0.24141     H
C      0.43642  0.44152  0.71161     C
C      0.43642  0.55852  0.21161     C
C      0.43703  0.40882   0.3387     C
C      0.43703  0.59122   0.8387     C
Fe     0.43857   0.2842   0.8693    Fe
Fe     0.43857   0.7158   0.3693    Fe
C      0.44062  0.35632  0.35275     C
C      0.44062  0.64372  0.85275     C
C      0.44184  0.46282  0.62305     C
C      0.44184  0.53722  0.12305     C
H      0.44301     0.47  0.59279     H
H      0.44301     0.53  0.09279     H
H      0.45359  0.48079  0.28128     H
H      0.45359  0.51921  0.78128     H
C      0.45362  0.17152  0.47699     C
C      0.45362  0.82852  0.97699     C
O      0.45364  0.39814  0.99192     O
O      0.45364  0.60186  0.49192     O
O      0.45566  0.24411  0.81422     O
O      0.45566  0.75589  0.31422     O
O      0.45642  0.22377  0.96942     O
O      0.45642  0.77623  0.46942     O
C      0.45822  0.40512  0.68911     C
C      0.45822  0.59492  0.18911     C
O      0.45833  0.31592   0.0177     O
O      0.45833  0.68408   0.5177     O
C      0.46012  0.18592  0.52268     C
C      0.46012  0.81412  0.02268     C
H      0.46269  0.48024  0.36089     H
H      0.46269  0.51975  0.86089     H
C      0.46294  0.41702  0.64378     C
C      0.46294  0.58302  0.14378     C
C      0.46372  0.44542  0.36993     C
C      0.46372  0.55462  0.86993     C
C      0.46902  0.36382   0.0227     C
C      0.46902  0.63622   0.5227     C
H      0.46972  0.37311  0.70324     H
H      0.46972  0.62689  0.20324     H
C      0.47072  0.34322  0.39718     C
C      0.47072  0.65682  0.89718     C
H      0.47392  0.30825  0.40601     H
H      0.47392  0.69175  0.90601     H
H      0.47829   0.1819   0.4623     H
H      0.47829   0.8181   0.9623     H
O      0.49028  0.40275  0.90971     O
O      0.49028  0.59725  0.40971     O
H      0.49129  0.45693  0.06431     H
H      0.49129  0.54307  0.56431     H
C      0.49202  0.43102  0.41457     C
C      0.49202  0.56902  0.91457     C
O      0.49312  0.33736  0.86132     O
O      0.49312  0.66264  0.36132     O
C      0.49342  0.21922  0.95065     C
C      0.49342  0.78082  0.45065     C
O      0.49473  0.24037  0.91299     O
O      0.49473  0.75963  0.41299     O
C      0.49485  0.38232  0.62223     C
C      0.49485  0.61772  0.12223     C
C      0.49662  0.38062  0.42933     C
C      0.49662  0.61942  0.92933     C
C      0.50342  0.38062  0.07067     C
C      0.50342  0.61942  0.57067     C
C      0.50515  0.38232  0.87777     C
C      0.50515  0.61772  0.37777     C
O      0.50527  0.24037  0.58701     O
O      0.50527  0.75963  0.08701     O
C      0.50662  0.21922  0.54935     C
C      0.50662  0.78082  0.04935     C
O      0.50688  0.33736  0.63868     O
O      0.50688  0.66264  0.13868     O
C      0.50802  0.43102  0.08543     C
C      0.50802  0.56902  0.58543     C
H      0.50871  0.45693  0.43569     H
H      0.50871  0.54307  0.93569     H
O      0.50972  0.40275  0.59029     O
O      0.50972  0.59725  0.09029     O
H      0.52171   0.1819   0.0377     H
H      0.52171   0.8181   0.5377     H
H      0.52608  0.30825  0.09399     H
H      0.52608  0.69175  0.59399     H
C      0.52932  0.34322  0.10282     C
C      0.52932  0.65682  0.60282     C
H      0.53028  0.37311  0.79676     H
H      0.53028  0.62689  0.29676     H
C      0.53102  0.36382   0.4773     C
C      0.53102  0.63622   0.9773     C
C      0.53632  0.44542  0.13007     C
C      0.53632  0.55462  0.63007     C
C      0.53706  0.41702  0.85622     C
C      0.53706  0.58302  0.35622     C
H      0.53731  0.48024  0.13911     H
H      0.53731  0.51975  0.63911     H
C      0.53992  0.18592  0.97732     C
C      0.53992  0.81412  0.47732     C
O      0.54167  0.31592   0.4823     O
O      0.54167  0.68408   0.9823     O
C      0.54182  0.40512  0.81089     C
C      0.54182  0.59492  0.31089     C
O      0.54358  0.22377  0.53058     O
O      0.54358  0.77623  0.03058     O
O      0.54434  0.24411  0.68578     O
O      0.54434  0.75589  0.18578     O
O      0.54636  0.39814  0.50808     O
O      0.54636  0.60186  0.00808     O
H      0.54641  0.48079  0.21872     H
H      0.54641  0.51921  0.71872     H
C      0.54642  0.17152  0.02301     C
C      0.54642  0.82852  0.52301     C
H      0.55699     0.47  0.90721     H
H      0.55699     0.53  0.40721     H
C      0.55816  0.46282  0.87695     C
C      0.55816  0.53722  0.37695     C
C      0.55942  0.35632  0.14725     C
C      0.55942  0.64372  0.64725     C
Fe     0.56143   0.2842   0.6307    Fe
Fe     0.56143   0.7158   0.1307    Fe
C      0.56297  0.40882   0.1613     C
C      0.56297  0.59122   0.6613     C
C      0.56358  0.44152  0.78839     C
C      0.56358  0.55852  0.28839     C
H      0.56606  0.43398  0.75859     H
H      0.56606  0.56602  0.25859     H
H      0.57045  0.46497  0.00205     H
H      0.57045  0.53503  0.50205     H
H      0.57267   0.1798  0.92648     H
H      0.57267   0.8202  0.42648     H
C      0.57561  0.46082  0.23455     C
C      0.57561  0.53918  0.73455     C
C      0.57662  0.17002  0.95742     C
C      0.57662  0.83002  0.45742     C
H      0.57728  0.33053  0.16796     H
H      0.57728  0.66947  0.66796     H
H      0.57875  0.40603  0.01677     H
H      0.57875  0.59397  0.51677     H
O      0.57926  0.31881  0.58186     O
O      0.57926  0.68119  0.08186     O
C      0.58092  0.49832   0.8549     C
C      0.58092  0.50172   0.3549     C
Fe      0.5813  0.39383  0.58137    Fe
Fe      0.5813  0.60617  0.08137    Fe
C      0.58192  0.48909  0.80878     C
C      0.58192  0.51091  0.30878     C
O      0.58592  0.47231  0.57567     O
O      0.58592  0.52769  0.07567     O
C      0.58872  0.14232  0.04712     C
C      0.58872  0.85772  0.54712     C
H      0.59281   0.1334  0.07828     H
H      0.59281   0.8666  0.57828     H
C      0.59303  0.42252  0.21165     C
C      0.59303  0.57752  0.71165     C
H      0.59581  0.47136  0.37047     H
H      0.59581  0.52864  0.87047     H
C      0.59627  0.43897  0.01665     C
C      0.59627  0.56117  0.51665     C
Fe     0.59745  0.28173  0.53433    Fe
Fe     0.59745  0.71827  0.03433    Fe
C      0.60181  0.47045  0.28251     C
C      0.60181  0.52955  0.78251     C
O      0.61586  0.32152  0.68187     O
O      0.61586  0.67848  0.18187     O
O      0.61719  0.40281  0.65419     O
O      0.61719  0.59719  0.15419     O
O      0.61753  0.22744  0.63766     O
O      0.61753  0.77256  0.13766     O
O      0.61761  0.23643  0.48346     O
O      0.61761  0.76357  0.98346     O
C      0.61942  0.14022  0.98027     C
C      0.61942  0.85982  0.48027     C
C      0.61964  0.49934  0.09144     C
C      0.61964  0.50074  0.59144     C
H      0.62122  0.43544   0.9993     H
H      0.62122  0.56456   0.4993     H
N      0.62284  0.45404  0.06344     N
N      0.62284  0.54604  0.56344     N
C      0.62612  0.12532  0.02542     C
C      0.62612  0.87472  0.52542     C
C      0.63092  0.36722  0.68607     C
C      0.63092  0.63282  0.18607     C
C      0.63882  0.39322  0.23509     C
C      0.63882  0.60678  0.73509     C
H      0.64376  0.13016  0.96501     H
H      0.64376  0.86984  0.46501     H
H      0.64391  0.49506  0.62074     H
H      0.64391  0.50494  0.12074     H
C      0.64491  0.43928  0.30548     C
C      0.64491  0.56072  0.80548     C
H      0.64891  0.39001  0.10017     H
H      0.64891  0.60999  0.60017     H
O      0.65073   0.3335  0.52077     O
O      0.65073   0.6665  0.02077     O
H      0.65135  0.36807  0.21858     H
H      0.65135  0.63193  0.71858     H
C      0.65382   0.2221  0.61948     C
C      0.65382   0.7779  0.11948     C
O       0.6549  0.24162   0.5807     O
O       0.6549  0.75838   0.0807     O
O      0.65553  0.39454  0.57526     O
O      0.65553  0.60546  0.07526     O
H      0.66072  0.44395  0.33758     H
H      0.66072  0.55605  0.83758     H
C      0.66325  0.42335  0.09554     C
C      0.66325  0.57675  0.59554     C
C      0.66497  0.40163  0.28216     C
C      0.66497  0.59837  0.78216     C
C      0.66502  0.37772  0.53879     C
C      0.66502  0.62232  0.03879     C
C      0.66632  0.38472  0.73389     C
C      0.66632  0.61532  0.23389     C
H      0.66939  0.46103  0.72203     H
H      0.66939  0.53897  0.22203     H
H      0.67224  0.31091  0.76082     H
H      0.67224  0.68909  0.26082     H
C      0.67332  0.09422  0.05353     C
C      0.67332  0.90582  0.55353     C
H      0.67574  0.44124  0.12501     H
H      0.67574  0.55876  0.62501     H
H      0.67701  0.04766  0.99894     H
H      0.67701  0.95234  0.49894     H
C      0.68022  0.43522  0.74483     C
C      0.68022  0.56482  0.24483     C
H      0.68206  0.18208  0.70473     H
H      0.68206  0.81792  0.20473     H
C      0.68212  0.34552  0.76802     C
C      0.68212  0.65452  0.26802     C
H      0.68695  0.37073  0.45861     H
H      0.68695  0.62927  0.95861     H
H      0.68798  0.13181  0.11529     H
H      0.68798  0.86819  0.61529     H
H      0.69198   0.4182  0.08259     H
H      0.69198   0.5818  0.58259     H
H      0.69209  0.35933  0.36723     H
H      0.69209  0.64067  0.86723     H
C      0.69342  0.05442  0.03064     C
C      0.69342  0.94562  0.53064     C
C      0.69422  0.41292  0.51625     C
C      0.69422  0.58712  0.01625     C
C      0.69902  0.40252  0.47292     C
C      0.69902  0.59752  0.97292     C
C      0.69972  0.10482   0.1001     C
C      0.69972  0.89522   0.6001     C
C      0.70111  0.19003  0.64551     C
C      0.70111  0.80997  0.14551     C
C      0.70712  0.17302  0.68993     C
C      0.70712  0.82702  0.18993     C
H      0.71021  0.48329  0.88204     H
H      0.71021  0.51671  0.38204     H
C      0.71052  0.44832  0.79017     C
C      0.71052  0.55172  0.29017     C
C      0.71163  0.37078  0.30724     C
C      0.71163  0.62922  0.80724     C
C      0.71324  0.35962   0.8131     C
C      0.71324  0.64042   0.3131     C
H      0.71401  0.46608   0.5682     H
H      0.71401  0.53392   0.0682     H
C      0.71552  0.45922  0.53802     C
C      0.71552  0.54082  0.03802     C
C      0.71782  0.35192  0.35271     C
C      0.71782  0.64812  0.85271     C
H      0.72021  0.48294  0.79718     H
H      0.72021  0.51706  0.29718     H
C      0.72202  0.43892  0.44929     C
C      0.72202  0.56112  0.94929     C
H      0.72372  0.43129  0.41925     H
H      0.72372  0.56871  0.91925     H
H      0.72502  0.33345   0.8355     H
H      0.72502  0.66655   0.3355     H
C      0.72682  0.41032  0.82559     C
C      0.72682  0.58972  0.32559     C
H      0.73444  0.18891  0.59298     H
H      0.73444  0.81109  0.09298     H
C      0.73612  0.02592  0.05426     C
C      0.73612  0.97412  0.55426     C
C      0.73852  0.17762  0.62351     C
C      0.73852  0.82242  0.12351     C
C      0.73862  0.49522  0.51632     C
C      0.73862  0.50482  0.01632     C
C      0.73922  0.46342  0.89844     C
C      0.73922  0.53662  0.39844     C
C      0.74222  0.48612  0.47049     C
C      0.74222  0.51392  0.97049     C
C      0.74342  0.07582  0.12456     C
C      0.74342  0.92422  0.62456     C
H      0.74778  0.36952  0.25639     H
H      0.74778  0.63048  0.75639     H
H      0.74794  0.02604   0.9681     H
H      0.74794  0.97396   0.4681     H
C      0.74952  0.14242   0.7135     C
C      0.74952  0.85762   0.2135     C
C      0.75052  0.35762   0.2865     C
C      0.75052  0.64242   0.7865     C
H      0.75206  0.47396   0.0319     H
H      0.75206  0.52604   0.5319     H
H      0.75222  0.13048  0.74361     H
H      0.75222  0.86952  0.24361     H
C      0.75662  0.42422  0.87544     C
C      0.75662  0.57582  0.37544     C
C      0.75782  0.01392  0.52951     C
C      0.75782  0.98612  0.02951     C
C      0.76082  0.03662  0.10156     C
C      0.76082  0.96342  0.60156     C
C      0.76142  0.00482  0.48368     C
C      0.76142  0.99522  0.98368     C
C      0.76152  0.32242  0.37649     C
C      0.76152  0.67762  0.87649     C
C      0.76392  0.47412  0.94574     C
C      0.76392  0.52592  0.44574     C
H      0.76556  0.31109  0.40703     H
H      0.76556  0.68891  0.90702     H
C      0.77322  0.08972  0.17441     C
C      0.77322  0.91032  0.67441     C
H      0.77498  0.16655   0.1645     H
H      0.77498  0.83345   0.6645     H
H      0.77628  0.06871  0.58075     H
H      0.77628  0.93129  0.08075     H
C      0.77802  0.06112  0.55071     C
C      0.77802  0.93892  0.05071     C
H      0.77979  0.01706  0.20282     H
H      0.77979  0.98294  0.70282     H
C      0.78222  0.14812  0.64729     C
C      0.78222  0.85192  0.14729     C
C      0.78452  0.04082  0.46202     C
C      0.78452  0.95922  0.96202     C
H      0.78599  0.03392   0.4318     H
H      0.78599  0.96608   0.9318     H
C      0.78684  0.14042   0.1869     C
C      0.78684  0.85962   0.6869     C
C      0.78837  0.12922  0.69276     C
C      0.78837  0.87078  0.19276     C
C      0.78952  0.05172  0.20983     C
C      0.78952  0.94832  0.70983     C
H      0.78979  0.01671  0.11796     H
H      0.78979  0.98329  0.61796     H
C      0.79292  0.32702  0.31007     C
C      0.79292  0.67302  0.81007     C
C      0.79889  0.30997  0.35449     C
C      0.79889  0.69003  0.85449     C
C      0.80032  0.39522   0.8999     C
C      0.80032  0.60482   0.3999     C
C      0.80102  0.09752  0.52712     C
C      0.80102  0.90252  0.02712     C
C      0.80582  0.08712  0.48375     C
C      0.80582  0.91292  0.98375     C
C      0.80662  0.44562  0.96936     C
C      0.80662  0.55442  0.46936     C
H      0.80791  0.14067  0.63277     H
H      0.80791  0.85933  0.13277     H
H      0.80802   0.0818  0.91741     H
H      0.80802   0.9182  0.41741     H
H      0.81202  0.36819  0.88471     H
H      0.81202  0.63181  0.38471     H
H      0.81305  0.12927  0.54139     H
H      0.81305  0.87073  0.04139     H
C      0.81792  0.15452  0.23198     C
C      0.81792  0.84552  0.73198     C
H      0.81794  0.31792  0.29527     H
H      0.81794  0.68208  0.79527     H
C      0.81982  0.06482  0.25517     C
C      0.81982  0.93522  0.75517     C
H      0.82299  0.45233  0.00106     H
H      0.82299  0.54766  0.50106     H
H      0.82426  0.05876  0.87499     H
H      0.82426  0.94124  0.37499     H
C      0.82672  0.40582  0.94647     C
C      0.82672  0.59422  0.44647     C
H      0.82776  0.18909  0.23918     H
H      0.82776  0.81091  0.73918     H
H      0.83061  0.03897  0.27797     H
H      0.83061  0.96103  0.77797     H
C      0.83372  0.11532  0.26611     C
C      0.83372  0.88472  0.76611     C
C      0.83502  0.12232  0.46121     C
C      0.83502  0.87772  0.96121     C
C      0.83503  0.09837  0.71784     C
C      0.83503  0.90163  0.21784     C
C      0.83685  0.07675  0.90454     C
C      0.83685  0.92335  0.40454     C
H      0.83928  0.05606  0.66242     H
H      0.83928  0.94395  0.16242     H
O      0.84447  0.10546  0.42474     O
O      0.84447  0.89454  0.92474     O
O       0.8451  0.25838   0.4193     O
O       0.8451  0.74162   0.9193     O
C      0.84622   0.2779  0.38052     C
C      0.84622   0.7221  0.88052     C
H      0.84865  0.13193  0.78142     H
H      0.84865  0.86807  0.28142     H
O      0.84927   0.1665  0.47923     O
O      0.84927   0.8335  0.97923     O
H      0.85109  0.10999  0.89983     H
H      0.85109  0.89001  0.39983     H
C      0.85509  0.06072  0.69452     C
C      0.85509  0.93928  0.19452     C
H      0.85609  0.00493  0.37926     H
H      0.85609  0.99506  0.87926     H
H      0.85624  0.36984  0.03499     H
H      0.85624  0.63016  0.53499     H
C      0.86122  0.10678  0.76491     C
C      0.86122  0.89322  0.26491     C
C      0.86912  0.13282  0.31393     C
C      0.86912  0.86722  0.81393     C
C      0.87392  0.37472  0.97462     C
C      0.87392  0.62532  0.47462     C
N      0.87724  0.04604  0.93664     N
N      0.87724  0.95404  0.43664     N
H      0.87878  0.06456   0.0007     H
H      0.87878  0.93544   0.5007     H
C      0.88044  0.00074  0.90864     C
C      0.88044  0.99934  0.40864     C
C      0.88062  0.35982  0.01973     C
C      0.88062  0.64022  0.51973     C
O      0.88239  0.26357  0.51654     O
O      0.88239  0.73643  0.01654     O
O      0.88247  0.27256  0.36234     O
O      0.88247  0.72744  0.86234     O
O      0.88281  0.09719  0.34581     O
O      0.88281  0.90281  0.84581     O
O      0.88414  0.17848  0.31813     O
O      0.88414  0.82152  0.81813     O
C      0.89819  0.02955  0.71749     C
C      0.89819  0.97045  0.21749     C
Fe     0.90255  0.21827  0.46567    Fe
Fe     0.90255  0.78173  0.96567    Fe
C      0.90387  0.06117  0.98345     C
C      0.90387  0.93897  0.48345     C
H      0.90419  0.97136  0.12953     H
H       0.9042  0.02864  0.62953     H
C      0.90697  0.07752  0.78835     C
C      0.90697  0.92252  0.28835     C
H      0.90719   0.3666  0.92172     H
H      0.90719   0.6334  0.42172     H
C      0.91132  0.35772  0.95292     C
C      0.91132  0.64232  0.45292     C
O      0.91412  0.02769  0.42433     O
O      0.91412  0.97231  0.92433     O
C      0.91808  0.01091  0.19122     C
C      0.91808  0.98909  0.69122     C
Fe      0.9187  0.10617  0.41863    Fe
Fe      0.9187  0.89383  0.91863    Fe
C      0.91912  0.00172   0.1451     C
C      0.91912  0.99832   0.6451     C
O      0.92074  0.18119  0.41816     O
O      0.92074  0.81881  0.91816     O
H      0.92125  0.09397  0.98323     H
H      0.92125  0.90603  0.48323     H
H      0.92272  0.16947  0.83204     H
H      0.92272  0.83053  0.33204     H
C      0.92342  0.33002  0.04262     C
C      0.92342  0.67002  0.54262     C
C      0.92439  0.03918  0.76545     C
C      0.92439  0.96082  0.26545     C
H      0.92733   0.3202  0.07352     H
H      0.92733   0.6798  0.57352     H
H      0.92955  0.03503  0.99795     H
H      0.92955  0.96497  0.49795     H
H      0.93394  0.06602  0.24141     H
H      0.93394  0.93398  0.74141     H
C      0.93642  0.05852  0.21161     C
C      0.93642  0.94152  0.71161     C
C      0.93703  0.09122   0.8387     C
C      0.93703  0.90882   0.3387     C
Fe     0.93857   0.2158   0.3693    Fe
Fe     0.93857   0.7842   0.8693    Fe
C      0.94062  0.14372  0.85275     C
C      0.94062  0.85632  0.35275     C
C      0.94184  0.03722  0.12305     C
C      0.94184  0.96282  0.62305     C
H      0.94301     0.03  0.09279     H
H      0.94301     0.97  0.59279     H
H      0.95359   0.0192  0.78128     H
H      0.95359  0.98079  0.28128     H
C      0.95362  0.32852  0.97699     C
C      0.95362  0.67152  0.47699     C
O      0.95364  0.10186  0.49192     O
O      0.95364  0.89814  0.99192     O
O      0.95566  0.25589  0.31422     O
O      0.95566  0.74411  0.81422     O
O      0.95642  0.27623  0.46942     O
O      0.95642  0.72377  0.96942     O
C      0.95822  0.09492  0.18911     C
C      0.95822  0.90512  0.68911     C
O      0.95833  0.18408   0.5177     O
O      0.95833  0.81592   0.0177     O
C      0.96012  0.31412  0.02268     C
C      0.96012  0.68592  0.52268     C
H      0.96269  0.01976  0.86089     H
H      0.96269  0.98025  0.36089     H
C      0.96294  0.08302  0.14378     C
C      0.96294  0.91702  0.64378     C
C      0.96372  0.05462  0.86993     C
C      0.96372  0.94542  0.36993     C
C      0.96902  0.13622   0.5227     C
C      0.96902  0.86382   0.0227     C
H      0.96972  0.12689  0.20324     H
H      0.96972  0.87311  0.70324     H
C      0.97072  0.15682  0.89718     C
C      0.97072  0.84322  0.39718     C
H      0.97392  0.19175  0.90601     H
H      0.97392  0.80825  0.40601     H
H      0.97829   0.3181   0.9623     H
H      0.97829   0.6819   0.4623     H
O      0.99028  0.09725  0.40971     O
O      0.99028  0.90275  0.90971     O
H      0.99129  0.04307  0.56431     H
H      0.99129  0.95693  0.06431     H
C      0.99202  0.06902  0.91457     C
C      0.99202  0.93102  0.41457     C
O      0.99312  0.16264  0.36132     O
O      0.99312  0.83736  0.86132     O
C      0.99342  0.28082  0.45065     C
C      0.99342  0.71922  0.95065     C
O      0.99473  0.25963  0.41299     O
O      0.99473  0.74037  0.91299     O
C      0.99485  0.11772  0.12223     C
C      0.99485  0.88232  0.62223     C
C      0.99662  0.11942  0.92933     C
C      0.99662  0.88062  0.42933     C
